version 3
run General-0-20250520-16:38:02-36724
attr configname General
attr datetime 20250520-16:38:02
attr datetimef 20250520-163802
attr experiment General
attr inifile omnetpp.ini
attr iterationvars ""
attr iterationvarsd ""
attr iterationvarsf ""
attr measurement ""
attr network Highway
attr processid 36724
attr repetition 0
attr replication #0
attr resultdir results
attr runnumber 0
attr seedset 0
config image-path ../../inet4.4/images:../../simu5G/images:../../veins_inet/images:../../veins-veins-5.2/images
config cmdenv-express-mode true
config cmdenv-autoflush true
config image-path ../../images
config network Highway
config debug-on-errors false
config print-undisposed false
config sim-time-limit 100s
config **.sctp.**.scalar-recording true
config **.sctp.**.vector-recording true
config **.routingRecorder.enabled true
config *.playgroundSizeX 20000m
config *.playgroundSizeY 20000m
config *.playgroundSizeZ 50m
config *.veinsManager.host "\"localhost\""
config *.veinsManager.moduleType "\"simu5g.nodes.cars.NRCar\""
config *.veinsManager.moduleName "\"car\""
config *.veinsManager.updateInterval 0.1s
config *.car[*].mobility.typename VeinsInetMobility
config **.numBands 25
config **.ueTxPower 26
config **.eNodeBTxPower 46
config *.car[*].cellularNic.nrPhy.dynamicCellAssociation true
config *.car[*].masterId 0
config *.car[*].macCellId 0
config *.car[*].nrMasterId 1
config *.car[*].nrMacCellId 1
config **.gNodeB1.macCellId 1
config **.gNodeB1.macNodeId 1
config **.gNodeB2.macCellId 2
config **.gNodeB2.macNodeId 2
config *.car[*].cellularNic.nrPhy.enableHandover true
config *.gNodeB*.cellularNic.phy.enableHandover true
config *.gNodeB*.cellularNic.phy.handoverLatency 50ms
config *.gNodeB*.cellInfo.broadcastMessageInterval 1s
config *.gNodeB*.numX2Apps 1
config *.gNodeB*.x2App[*].server.localPort "5000 + ancestorIndex(1)"
config *.gNodeB1.x2App[0].client.connectAddress "\"gNodeB2%x2ppp0\""
config *.gNodeB2.x2App[0].client.connectAddress "\"gNodeB1%x2ppp0\""
config **.sctp.nagleEnabled false
config **.sctp.enableHeartbeats false

scalar Highway.gNodeB1.x2App[0].client ums 1452
scalar Highway.gNodeB2.x2App[0].client ums 1452
par Highway.car[0].interfaceTable typename "\"inet.networklayer.common.InterfaceTable\""
par Highway.car[0].interfaceTable displayAddresses false
par Highway.car[0].mobility typename "\"org.car2x.veins.subprojects.veins_inet.VeinsInetMobility\""
par Highway.car[0].mobility subjectModule "\"^\""
par Highway.car[0].mobility coordinateSystemModule "\"\""
par Highway.car[0].mobility displayStringTextFormat "\"p: %p\\nv: %v\""
attr mutable ""
par Highway.car[0].mobility updateDisplayString true
par Highway.car[0].mobility constraintAreaMinX "-inf m"
attr unit m
par Highway.car[0].mobility constraintAreaMinY "-inf m"
attr unit m
par Highway.car[0].mobility constraintAreaMinZ "-inf m"
attr unit m
par Highway.car[0].mobility constraintAreaMaxX "inf m"
attr unit m
par Highway.car[0].mobility constraintAreaMaxY "inf m"
attr unit m
par Highway.car[0].mobility constraintAreaMaxZ "inf m"
attr unit m
par Highway.car[0].mobility initFromDisplayString true
par Highway.car[0].lo[0].upperLayerIn.channel typename "\"ned.IdealChannel\""
par Highway.car[0].lo[0].lo.upperLayerOut.channel typename "\"ned.IdealChannel\""
par Highway.car[0].lo[0].lo typename "\"inet.linklayer.loopback.Loopback\""
par Highway.car[0].lo[0].lo interfaceTableModule "\"Highway.car[0].interfaceTable\""
par Highway.car[0].lo[0].lo mtu 4470B
attr unit B
scalar Highway.car[0].lo[0].lo rcvdPkFromHl:count 0
attr interpolationmode none
attr recordingmode count
attr source packetReceivedFromUpper
attr title "packets received from higher layer, count"
scalar Highway.car[0].lo[0].lo rcvdPkFromHl:sum(packetBytes) 0
attr interpolationmode none
attr recordingmode sum(packetBytes)
attr source packetReceivedFromUpper
attr title "packets received from higher layer, sum(packetBytes)"
scalar Highway.car[0].lo[0].lo passedUpPk:count 0
attr interpolationmode none
attr recordingmode count
attr source packetSentToUpper
attr title "packets passed to higher layer, count"
scalar Highway.car[0].lo[0].lo passedUpPk:sum(packetBytes) 0
attr interpolationmode none
attr recordingmode sum(packetBytes)
attr source packetSentToUpper
attr title "packets passed to higher layer, sum(packetBytes)"
par Highway.car[0].lo[0] typename "\"inet.linklayer.loopback.LoopbackInterface\""
par Highway.car[0].lo[0] displayStringTextFormat "\"%a (%i)\\n%m\""
par Highway.car[0].lo[0] recordPcap false
par Highway.car[0].lo[0] numPcapRecorders 0
par Highway.car[0].lo[0] interfaceTableModule "\"Highway.car[0].interfaceTable\""
scalar Highway.car[0].lo[0] packetDropInterfaceDown:count 0
attr interpolationmode none
attr recordingmode count
attr source packetDropReasonIsInterfaceDown(packetDropped)
attr title "packet drops: interface down, count"
scalar Highway.car[0].lo[0] packetDropInterfaceDown:sum(packetBytes) 0
attr interpolationmode none
attr recordingmode sum(packetBytes)
attr source packetDropReasonIsInterfaceDown(packetDropped)
attr title "packet drops: interface down, sum(packetBytes)"
scalar Highway.car[0].lo[0] packetDropNoCarrier:count 0
attr interpolationmode none
attr recordingmode count
attr source packetDropReasonIsNoCarrier(packetDropped)
attr title "packet drops: no carrier, count"
scalar Highway.car[0].lo[0] packetDropNoCarrier:sum(packetBytes) 0
attr interpolationmode none
attr recordingmode sum(packetBytes)
attr source packetDropReasonIsNoCarrier(packetDropped)
attr title "packet drops: no carrier, sum(packetBytes)"
par Highway.car[0].cellularNic.ip2nic.upperLayerOut.channel typename "\"ned.DelayChannel\""
par Highway.car[0].cellularNic.ip2nic.upperLayerOut.channel disabled false
attr mutable ""
par Highway.car[0].cellularNic.ip2nic.upperLayerOut.channel delay 0s
attr mutable ""
attr unit s
par Highway.car[0].cellularNic.upperLayerIn.channel typename "\"ned.DelayChannel\""
par Highway.car[0].cellularNic.upperLayerIn.channel disabled false
attr mutable ""
par Highway.car[0].cellularNic.upperLayerIn.channel delay 0s
attr mutable ""
attr unit s
par Highway.car[0].cellularNic.ip2nic typename "\"simu5g.stack.ip2nic.IP2Nic\""
par Highway.car[0].cellularNic.ip2nic nodeType "\"UE\""
par Highway.car[0].cellularNic.ip2nic interfaceTableModule "\"Highway.car[0].interfaceTable\""
par Highway.car[0].cellularNic.ip2nic interfaceName "\"cellular\""
par Highway.car[0].cellularNic.ip2nic routingTableModule "\"Highway.car[0].ipv4.routingTable\""
par Highway.car[0].cellularNic.pdcpRrc typename "\"simu5g.stack.pdcp_rrc.NRPdcpRrcUe\""
par Highway.car[0].cellularNic.pdcpRrc headerCompressedSize -1B
attr unit B
par Highway.car[0].cellularNic.pdcpRrc conversationalRlc 1
attr enum TM,UM,AM,UNKNOWN_RLC_TYPE
par Highway.car[0].cellularNic.pdcpRrc streamingRlc 1
attr enum TM,UM,AM,UNKNOWN_RLC_TYPE
par Highway.car[0].cellularNic.pdcpRrc interactiveRlc 1
attr enum TM,UM,AM,UNKNOWN_RLC_TYPE
par Highway.car[0].cellularNic.pdcpRrc backgroundRlc 1
attr enum TM,UM,AM,UNKNOWN_RLC_TYPE
scalar Highway.car[0].cellularNic.pdcpRrc sentPacketToLowerLayer:count 0
attr interpolationmode none
attr recordingmode count
attr source sentPacketToLowerLayer
scalar Highway.car[0].cellularNic.pdcpRrc sentPacketToLowerLayer:sum(packetBytes) 0
attr interpolationmode none
attr recordingmode sum(packetBytes)
attr source sentPacketToLowerLayer
scalar Highway.car[0].cellularNic.pdcpRrc sentPacketToUpperLayer:count 0
attr interpolationmode none
attr recordingmode count
attr source sentPacketToUpperLayer
scalar Highway.car[0].cellularNic.pdcpRrc sentPacketToUpperLayer:sum(packetBytes) 0
attr interpolationmode none
attr recordingmode sum(packetBytes)
attr source sentPacketToUpperLayer
scalar Highway.car[0].cellularNic.pdcpRrc receivedPacketFromLowerLayer:count 0
attr interpolationmode none
attr recordingmode count
attr source receivedPacketFromLowerLayer
scalar Highway.car[0].cellularNic.pdcpRrc receivedPacketFromLowerLayer:sum(packetBytes) 0
attr interpolationmode none
attr recordingmode sum(packetBytes)
attr source receivedPacketFromLowerLayer
scalar Highway.car[0].cellularNic.pdcpRrc receivedPacketFromUpperLayer:count 0
attr interpolationmode none
attr recordingmode count
attr source receivedPacketFromUpperLayer
scalar Highway.car[0].cellularNic.pdcpRrc receivedPacketFromUpperLayer:sum(packetBytes) 0
attr interpolationmode none
attr recordingmode sum(packetBytes)
attr source receivedPacketFromUpperLayer
par Highway.car[0].cellularNic.rlc.tm typename "\"simu5g.stack.rlc.LteRlcTm\""
par Highway.car[0].cellularNic.rlc.tm queueSize 2097152B
attr unit B
scalar Highway.car[0].cellularNic.rlc.tm rlcPacketLossDl:mean -nan
attr recordingmode mean
attr source rlcPacketLossDl
attr title "rlc Packet Loss, mean"
attr unit ""
scalar Highway.car[0].cellularNic.rlc.tm rlcPacketLossDl:sum 0
attr recordingmode sum
attr source rlcPacketLossDl
attr title "rlc Packet Loss, sum"
attr unit ""
scalar Highway.car[0].cellularNic.rlc.tm rlcPacketLossUl:mean -nan
attr recordingmode mean
attr source rlcPacketLossUl
attr title "rlc Packet Loss, mean"
attr unit ""
scalar Highway.car[0].cellularNic.rlc.tm rlcPacketLossUl:sum 0
attr recordingmode sum
attr source rlcPacketLossUl
attr title "rlc Packet Loss, sum"
attr unit ""
scalar Highway.car[0].cellularNic.rlc.tm sentPacketToLowerLayer:count 0
attr interpolationmode none
attr recordingmode count
attr source sentPacketToLowerLayer
scalar Highway.car[0].cellularNic.rlc.tm sentPacketToLowerLayer:sum(packetBytes) 0
attr interpolationmode none
attr recordingmode sum(packetBytes)
attr source sentPacketToLowerLayer
scalar Highway.car[0].cellularNic.rlc.tm sentPacketToUpperLayer:count 0
attr interpolationmode none
attr recordingmode count
attr source sentPacketToUpperLayer
scalar Highway.car[0].cellularNic.rlc.tm sentPacketToUpperLayer:sum(packetBytes) 0
attr interpolationmode none
attr recordingmode sum(packetBytes)
attr source sentPacketToUpperLayer
scalar Highway.car[0].cellularNic.rlc.tm receivedPacketFromLowerLayer:count 0
attr interpolationmode none
attr recordingmode count
attr source receivedPacketFromLowerLayer
scalar Highway.car[0].cellularNic.rlc.tm receivedPacketFromLowerLayer:sum(packetBytes) 0
attr interpolationmode none
attr recordingmode sum(packetBytes)
attr source receivedPacketFromLowerLayer
scalar Highway.car[0].cellularNic.rlc.tm receivedPacketFromUpperLayer:count 0
attr interpolationmode none
attr recordingmode count
attr source receivedPacketFromUpperLayer
scalar Highway.car[0].cellularNic.rlc.tm receivedPacketFromUpperLayer:sum(packetBytes) 0
attr interpolationmode none
attr recordingmode sum(packetBytes)
attr source receivedPacketFromUpperLayer
par Highway.car[0].cellularNic.rlc.um typename "\"simu5g.stack.rlc.LteRlcUmD2D\""
par Highway.car[0].cellularNic.rlc.um queueSize 2097152B
attr unit B
par Highway.car[0].cellularNic.rlc.um mapAllLcidsToSingleBearer false
scalar Highway.car[0].cellularNic.rlc.um rlcPduPacketLossD2D:mean -nan
attr recordingmode mean
attr source rlcPduPacketLossD2D
attr title "rlc Packet Loss, mean"
attr unit ""
scalar Highway.car[0].cellularNic.rlc.um rlcPduThroughputD2D:mean -nan
attr recordingmode mean
attr source rlcPduThroughputD2D
attr title "Throughput at the rlc layer D2D, mean"
attr unit Bps
scalar Highway.car[0].cellularNic.rlc.um rlcPduDelayD2D:mean -nan
attr recordingmode mean
attr source rlcPduDelayD2D
attr title "Delay at the rlc layer D2D, mean"
attr unit s
scalar Highway.car[0].cellularNic.rlc.um rlcCellThroughputD2D:mean -nan
attr recordingmode mean
attr source rlcCellThroughputD2D
attr title "Cell Throughput at the rlc layer D2D, mean"
attr unit Bps
scalar Highway.car[0].cellularNic.rlc.um rlcCellPacketLossD2D:mean -nan
attr recordingmode mean
attr source rlcCellPacketLossD2D
attr title "rlc Cell Packet Loss, mean"
attr unit ""
scalar Highway.car[0].cellularNic.rlc.um rlcPacketLossD2D:mean -nan
attr recordingmode mean
attr source rlcPacketLossD2D
attr title "rlc Packet Loss, mean"
attr unit ""
scalar Highway.car[0].cellularNic.rlc.um rlcThroughputD2D:mean -nan
attr recordingmode mean
attr source rlcThroughputD2D
attr title "Throughput at the rlc layer D2D, mean"
attr unit Bps
scalar Highway.car[0].cellularNic.rlc.um rlcDelayD2D:mean -nan
attr recordingmode mean
attr source rlcDelayD2D
attr title "Delay at the rlc layer D2D, mean"
attr unit s
scalar Highway.car[0].cellularNic.rlc.um rlcPduPacketLossDl:mean -nan
attr recordingmode mean
attr source rlcPduPacketLossDl
attr title "rlc Packet Loss, mean"
attr unit ""
scalar Highway.car[0].cellularNic.rlc.um rlcPduPacketLossUl:mean -nan
attr recordingmode mean
attr source rlcPduPacketLossUl
attr title "rlc Packet Loss, mean"
attr unit ""
scalar Highway.car[0].cellularNic.rlc.um rlcPduThroughputUl:mean -nan
attr recordingmode mean
attr source rlcPduThroughputUl
attr title "Throughput at the rlc layer UL, mean"
attr unit Bps
scalar Highway.car[0].cellularNic.rlc.um rlcPduDelayUl:mean -nan
attr recordingmode mean
attr source rlcPduDelayUl
attr title "Delay at the rlc layer UL, mean"
attr unit s
scalar Highway.car[0].cellularNic.rlc.um rlcPduThroughputDl:mean -nan
attr recordingmode mean
attr source rlcPduThroughputDl
attr title "Throughput at the rlc layer DL, mean"
attr unit Bps
scalar Highway.car[0].cellularNic.rlc.um rlcPduDelayDl:mean -nan
attr recordingmode mean
attr source rlcPduDelayDl
attr title "Delay at the rlc layer UL, mean"
attr unit s
scalar Highway.car[0].cellularNic.rlc.um rlcCellPacketLossUl:mean -nan
attr recordingmode mean
attr source rlcCellPacketLossUl
attr title "rlc Cell Packet Loss, mean"
attr unit ""
scalar Highway.car[0].cellularNic.rlc.um rlcCellPacketLossDl:mean -nan
attr recordingmode mean
attr source rlcCellPacketLossDl
attr title "rlc Cell Packet Loss, mean"
attr unit ""
scalar Highway.car[0].cellularNic.rlc.um rlcCellThroughputDl:mean -nan
attr recordingmode mean
attr source rlcCellThroughputDl
attr title "Cell Throughput at the rlc layer DL, mean"
attr unit Bps
scalar Highway.car[0].cellularNic.rlc.um rlcCellThroughputUl:mean -nan
attr recordingmode mean
attr source rlcCellThroughputUl
attr title "Cell Throughput at the rlc layer UL, mean"
attr unit Bps
scalar Highway.car[0].cellularNic.rlc.um rlcPacketLossTotal:mean -nan
attr recordingmode mean
attr source rlcPacketLossTotal
attr title "rlc Packet Loss, mean"
attr unit ""
scalar Highway.car[0].cellularNic.rlc.um rlcThroughputUl:mean -nan
attr recordingmode mean
attr source rlcThroughputUl
attr title "Throughput at the rlc layer UL, mean"
attr unit Bps
scalar Highway.car[0].cellularNic.rlc.um rlcDelayUl:mean -nan
attr recordingmode mean
attr source rlcDelayUl
attr title "Delay at the rlc layer UL, mean"
attr unit s
scalar Highway.car[0].cellularNic.rlc.um rlcThroughputDl:mean -nan
attr recordingmode mean
attr source rlcThroughputDl
attr title "Throughput at the rlc layer DL, mean"
attr unit Bps
scalar Highway.car[0].cellularNic.rlc.um rlcDelayDl:mean -nan
attr recordingmode mean
attr source rlcDelayDl
attr title "Delay at the rlc layer DL, mean"
attr unit s
scalar Highway.car[0].cellularNic.rlc.um rlcPacketLossDl:mean -nan
attr recordingmode mean
attr source rlcPacketLossDl
attr title "rlc Packet Loss, mean"
attr unit ""
scalar Highway.car[0].cellularNic.rlc.um rlcPacketLossDl:sum 0
attr recordingmode sum
attr source rlcPacketLossDl
attr title "rlc Packet Loss, sum"
attr unit ""
scalar Highway.car[0].cellularNic.rlc.um rlcPacketLossUl:mean -nan
attr recordingmode mean
attr source rlcPacketLossUl
attr title "rlc Packet Loss, mean"
attr unit ""
scalar Highway.car[0].cellularNic.rlc.um rlcPacketLossUl:sum 0
attr recordingmode sum
attr source rlcPacketLossUl
attr title "rlc Packet Loss, sum"
attr unit ""
scalar Highway.car[0].cellularNic.rlc.um sentPacketToLowerLayer:count 0
attr interpolationmode none
attr recordingmode count
attr source sentPacketToLowerLayer
scalar Highway.car[0].cellularNic.rlc.um sentPacketToLowerLayer:sum(packetBytes) 0
attr interpolationmode none
attr recordingmode sum(packetBytes)
attr source sentPacketToLowerLayer
scalar Highway.car[0].cellularNic.rlc.um sentPacketToUpperLayer:count 0
attr interpolationmode none
attr recordingmode count
attr source sentPacketToUpperLayer
scalar Highway.car[0].cellularNic.rlc.um sentPacketToUpperLayer:sum(packetBytes) 0
attr interpolationmode none
attr recordingmode sum(packetBytes)
attr source sentPacketToUpperLayer
scalar Highway.car[0].cellularNic.rlc.um receivedPacketFromLowerLayer:count 0
attr interpolationmode none
attr recordingmode count
attr source receivedPacketFromLowerLayer
scalar Highway.car[0].cellularNic.rlc.um receivedPacketFromLowerLayer:sum(packetBytes) 0
attr interpolationmode none
attr recordingmode sum(packetBytes)
attr source receivedPacketFromLowerLayer
scalar Highway.car[0].cellularNic.rlc.um receivedPacketFromUpperLayer:count 0
attr interpolationmode none
attr recordingmode count
attr source receivedPacketFromUpperLayer
scalar Highway.car[0].cellularNic.rlc.um receivedPacketFromUpperLayer:sum(packetBytes) 0
attr interpolationmode none
attr recordingmode sum(packetBytes)
attr source receivedPacketFromUpperLayer
par Highway.car[0].cellularNic.rlc.am typename "\"simu5g.stack.rlc.LteRlcAm\""
scalar Highway.car[0].cellularNic.rlc.am rlcPduPacketLossDl:mean -nan
attr recordingmode mean
attr source rlcPduPacketLossDl
attr title "rlc Packet Loss, mean"
attr unit ""
scalar Highway.car[0].cellularNic.rlc.am rlcPduPacketLossUl:mean -nan
attr recordingmode mean
attr source rlcPduPacketLossUl
attr title "rlc Packet Loss, mean"
attr unit ""
scalar Highway.car[0].cellularNic.rlc.am rlcPduThroughputUl:mean -nan
attr recordingmode mean
attr source rlcPduThroughputUl
attr title "Throughput at the rlc layer UL, mean"
attr unit Bps
scalar Highway.car[0].cellularNic.rlc.am rlcPduDelayUl:mean -nan
attr recordingmode mean
attr source rlcPduDelayUl
attr title "Delay at the rlc layer UL, mean"
attr unit s
scalar Highway.car[0].cellularNic.rlc.am rlcPduThroughputDl:mean -nan
attr recordingmode mean
attr source rlcPduThroughputDl
attr title "Throughput at the rlc layer DL, mean"
attr unit Bps
scalar Highway.car[0].cellularNic.rlc.am rlcPduDelayDl:mean -nan
attr recordingmode mean
attr source rlcPduDelayDl
attr title "Delay at the rlc layer UL, mean"
attr unit s
scalar Highway.car[0].cellularNic.rlc.am rlcCellPacketLossUl:mean -nan
attr recordingmode mean
attr source rlcCellPacketLossUl
attr title "rlc Cell Packet Loss, mean"
attr unit ""
scalar Highway.car[0].cellularNic.rlc.am rlcCellPacketLossDl:mean -nan
attr recordingmode mean
attr source rlcCellPacketLossDl
attr title "rlc Cell Packet Loss, mean"
attr unit ""
scalar Highway.car[0].cellularNic.rlc.am rlcCellThroughputDl:mean -nan
attr recordingmode mean
attr source rlcCellThroughputDl
attr title "Cell Throughput at the rlc layer DL, mean"
attr unit Bps
scalar Highway.car[0].cellularNic.rlc.am rlcCellThroughputUl:mean -nan
attr recordingmode mean
attr source rlcCellThroughputUl
attr title "Cell Throughput at the rlc layer UL, mean"
attr unit Bps
scalar Highway.car[0].cellularNic.rlc.am rlcPacketLossTotal:mean -nan
attr recordingmode mean
attr source rlcPacketLossTotal
attr title "rlc Packet Loss, mean"
attr unit ""
scalar Highway.car[0].cellularNic.rlc.am rlcThroughputUl:mean -nan
attr recordingmode mean
attr source rlcThroughputUl
attr title "Throughput at the rlc layer UL, mean"
attr unit Bps
scalar Highway.car[0].cellularNic.rlc.am rlcDelayUl:mean -nan
attr recordingmode mean
attr source rlcDelayUl
attr title "Delay at the rlc layer UL, mean"
attr unit s
scalar Highway.car[0].cellularNic.rlc.am rlcThroughputDl:mean -nan
attr recordingmode mean
attr source rlcThroughputDl
attr title "Throughput at the rlc layer DL, mean"
attr unit Bps
scalar Highway.car[0].cellularNic.rlc.am rlcDelayDl:mean -nan
attr recordingmode mean
attr source rlcDelayDl
attr title "Delay at the rlc layer UL, mean"
attr unit s
scalar Highway.car[0].cellularNic.rlc.am rlcPacketLossDl:mean -nan
attr recordingmode mean
attr source rlcPacketLossDl
attr title "rlc Packet Loss, mean"
attr unit ""
scalar Highway.car[0].cellularNic.rlc.am rlcPacketLossUl:mean -nan
attr recordingmode mean
attr source rlcPacketLossUl
attr title "rlc Packet Loss, mean"
attr unit ""
par Highway.car[0].cellularNic.rlc.mux typename "\"simu5g.stack.rlc.LteRlcMux\""
par Highway.car[0].cellularNic.rlc typename "\"simu5g.stack.rlc.LteRlc\""
par Highway.car[0].cellularNic.rlc LteRlcUmType "\"LteRlcUm\""
par Highway.car[0].cellularNic.rlc d2dCapable true
par Highway.car[0].cellularNic.rlc umType "\"LteRlcUmD2D\""
par Highway.car[0].cellularNic.mac typename "\"simu5g.stack.mac.LteMacUeD2D\""
par Highway.car[0].cellularNic.mac interfaceTableModule "\"Highway.car[0].interfaceTable\""
par Highway.car[0].cellularNic.mac interfaceName "\"cellular\""
par Highway.car[0].cellularNic.mac queueSize 2097152B
attr unit B
par Highway.car[0].cellularNic.mac muMimo true
par Highway.car[0].cellularNic.mac harqProcesses 8
par Highway.car[0].cellularNic.mac maxHarqRtx 3
par Highway.car[0].cellularNic.mac harqFbEvaluationTimer 4
par Highway.car[0].cellularNic.mac statDisplay false
par Highway.car[0].cellularNic.mac usePreconfiguredTxParams false
par Highway.car[0].cellularNic.mac d2dCqi 7
scalar Highway.car[0].cellularNic.mac rcvdD2DModeSwitchNotification:count 0
attr recordingmode count
attr source rcvdD2DModeSwitchNotification
attr title "Reception of mode switch notification (tx side), count"
attr unit ""
scalar Highway.car[0].cellularNic.mac macThroughputD2D:mean -nan
attr recordingmode mean
attr source macThroughputD2D
attr title "Throughput at the MAC layer D2D, mean"
attr unit Bps
scalar Highway.car[0].cellularNic.mac macDelayD2D:mean -nan
attr recordingmode mean
attr source macDelayD2D
attr title "Delay at the MAC layer D2D, mean"
attr unit s
scalar Highway.car[0].cellularNic.mac macPacketLossD2D:mean -nan
attr recordingmode mean
attr source macPacketLossD2D
attr title "Mac Packet Loss D2D, mean"
attr unit ""
scalar Highway.car[0].cellularNic.mac harqErrorRateD2D:mean -nan
attr recordingmode mean
attr source harqErrorRateD2D
attr title "Harq Error Rate D2D, mean"
attr unit ""
scalar Highway.car[0].cellularNic.mac harqErrorRate_4th_D2D:mean -nan
attr recordingmode mean
attr source harqErrorRate_4th_D2D
attr title "Harq Error Rate D2D (4th Tx), mean"
attr unit ""
scalar Highway.car[0].cellularNic.mac harqErrorRate_3rd_D2D:mean -nan
attr recordingmode mean
attr source harqErrorRate_3rd_D2D
attr title "Harq Error Rate D2D (3rd Tx), mean"
attr unit ""
scalar Highway.car[0].cellularNic.mac harqErrorRate_2nd_D2D:mean -nan
attr recordingmode mean
attr source harqErrorRate_2nd_D2D
attr title "Harq Error Rate D2D (2nd Tx), mean"
attr unit ""
scalar Highway.car[0].cellularNic.mac harqErrorRate_1st_D2D:mean -nan
attr recordingmode mean
attr source harqErrorRate_1st_D2D
attr title "Harq Error Rate D2D (1st Tx), mean"
attr unit ""
scalar Highway.car[0].cellularNic.mac measuredItbs:mean -nan
attr recordingmode mean
attr source measuredItbs
attr title "TBS index, mean"
attr unit ""
scalar Highway.car[0].cellularNic.mac harqErrorRate_4th_Dl:mean -nan
attr recordingmode mean
attr source harqErrorRate_4th_Dl
attr title "Harq Error Rate Dl (4th tx), mean"
attr unit ""
scalar Highway.car[0].cellularNic.mac harqErrorRate_4th_Ul:mean -nan
attr recordingmode mean
attr source harqErrorRate_4th_Ul
attr title "Harq Error Rate Ul (4th tx), mean"
attr unit ""
scalar Highway.car[0].cellularNic.mac harqErrorRate_3rd_Dl:mean -nan
attr recordingmode mean
attr source harqErrorRate_3rd_Dl
attr title "Harq Error Rate Dl (3rd tx), mean"
attr unit ""
scalar Highway.car[0].cellularNic.mac harqErrorRate_3rd_Ul:mean -nan
attr recordingmode mean
attr source harqErrorRate_3rd_Ul
attr title "Harq Error Rate Ul (3rd tx), mean"
attr unit ""
scalar Highway.car[0].cellularNic.mac harqErrorRate_2nd_Dl:mean -nan
attr recordingmode mean
attr source harqErrorRate_2nd_Dl
attr title "Harq Error Rate Dl (2nd tx), mean"
attr unit ""
scalar Highway.car[0].cellularNic.mac harqErrorRate_2nd_Ul:mean -nan
attr recordingmode mean
attr source harqErrorRate_2nd_Ul
attr title "Harq Error Rate Ul (2nd tx), mean"
attr unit ""
scalar Highway.car[0].cellularNic.mac harqErrorRate_1st_Dl:mean -nan
attr recordingmode mean
attr source harqErrorRate_1st_Dl
attr title "Harq Error Rate Dl (1st tx), mean"
attr unit ""
scalar Highway.car[0].cellularNic.mac harqErrorRate_1st_Ul:mean -nan
attr recordingmode mean
attr source harqErrorRate_1st_Ul
attr title "Harq Error Rate Ul (1st tx), mean"
attr unit ""
scalar Highway.car[0].cellularNic.mac harqTxAttemptsUl:mean -nan
attr recordingmode mean
attr source harqTxAttemptsUl
attr title "Harq Tx Attempts Ul, mean"
attr unit ""
scalar Highway.car[0].cellularNic.mac harqTxAttemptsDl:mean -nan
attr recordingmode mean
attr source harqTxAttemptsDl
attr title "Harq Tx Attempts Dl, mean"
attr unit ""
scalar Highway.car[0].cellularNic.mac harqErrorRateDl:mean -nan
attr recordingmode mean
attr source harqErrorRateDl
attr title "Harq Error Rate Dl, mean"
attr unit ""
scalar Highway.car[0].cellularNic.mac harqErrorRateUl:mean -nan
attr recordingmode mean
attr source harqErrorRateUl
attr title "Harq Error Rate Ul, mean"
attr unit ""
scalar Highway.car[0].cellularNic.mac macBufferOverFlowD2D:mean -nan
attr recordingmode mean
attr source macBufferOverFlowD2D
attr title "Mac buffer overflow as function of time, mean"
attr unit Byte/s
scalar Highway.car[0].cellularNic.mac macBufferOverFlowUl:mean -nan
attr recordingmode mean
attr source macBufferOverFlowUl
attr title "Mac buffer overflow as function of time, mean"
attr unit Byte/s
scalar Highway.car[0].cellularNic.mac macBufferOverFlowDl:mean -nan
attr recordingmode mean
attr source macBufferOverFlowDl
attr title "Mac buffer overflow as function of time, mean"
attr unit Byte/s
scalar Highway.car[0].cellularNic.mac macPacketLossDl:mean -nan
attr recordingmode mean
attr source macPacketLossDl
attr title "Mac Packet Loss Dl, mean"
attr unit ""
scalar Highway.car[0].cellularNic.mac macPacketLossUl:mean -nan
attr recordingmode mean
attr source macPacketLossUl
attr title "Mac Packet Loss Ul, mean"
attr unit ""
scalar Highway.car[0].cellularNic.mac macCellPacketLossUl:mean -nan
attr recordingmode mean
attr source macCellPacketLossUl
attr title "Mac Cell Packet Loss Ul, mean"
attr unit ""
scalar Highway.car[0].cellularNic.mac macCellPacketLossDl:mean -nan
attr recordingmode mean
attr source macCellPacketLossDl
attr title "Mac Cell Packet Loss Dl, mean"
attr unit ""
scalar Highway.car[0].cellularNic.mac macCellThroughputDl:mean -nan
attr recordingmode mean
attr source macCellThroughputDl
attr title "Cell Throughput at the MAC layer DL, mean"
attr unit Bps
scalar Highway.car[0].cellularNic.mac macCellThroughputUl:mean -nan
attr recordingmode mean
attr source macCellThroughputUl
attr title "Cell Throughput at the MAC layer UL, mean"
attr unit Bps
scalar Highway.car[0].cellularNic.mac macThroughputUl:mean -nan
attr recordingmode mean
attr source macThroughputUl
attr title "Throughput at the MAC layer UL, mean"
attr unit Bps
scalar Highway.car[0].cellularNic.mac macDelayUl:mean -nan
attr recordingmode mean
attr source macDelayUl
attr title "Delay at the MAC layer UL, mean"
attr unit s
scalar Highway.car[0].cellularNic.mac macThroughputDl:mean -nan
attr recordingmode mean
attr source macThroughputDl
attr title "Throughput at the MAC layer DL, mean"
attr unit Bps
scalar Highway.car[0].cellularNic.mac macDelayDl:mean -nan
attr recordingmode mean
attr source macDelayDl
attr title "Delay at the MAC layer UL, mean"
attr unit s
scalar Highway.car[0].cellularNic.mac sentPacketToLowerLayer:count 0
attr interpolationmode none
attr recordingmode count
attr source sentPacketToLowerLayer
scalar Highway.car[0].cellularNic.mac sentPacketToLowerLayer:sum(packetBytes) 0
attr interpolationmode none
attr recordingmode sum(packetBytes)
attr source sentPacketToLowerLayer
scalar Highway.car[0].cellularNic.mac sentPacketToUpperLayer:count 0
attr interpolationmode none
attr recordingmode count
attr source sentPacketToUpperLayer
scalar Highway.car[0].cellularNic.mac sentPacketToUpperLayer:sum(packetBytes) 0
attr interpolationmode none
attr recordingmode sum(packetBytes)
attr source sentPacketToUpperLayer
scalar Highway.car[0].cellularNic.mac receivedPacketFromLowerLayer:count 0
attr interpolationmode none
attr recordingmode count
attr source receivedPacketFromLowerLayer
scalar Highway.car[0].cellularNic.mac receivedPacketFromLowerLayer:sum(packetBytes) 0
attr interpolationmode none
attr recordingmode sum(packetBytes)
attr source receivedPacketFromLowerLayer
scalar Highway.car[0].cellularNic.mac receivedPacketFromUpperLayer:count 0
attr interpolationmode none
attr recordingmode count
attr source receivedPacketFromUpperLayer
scalar Highway.car[0].cellularNic.mac receivedPacketFromUpperLayer:sum(packetBytes) 0
attr interpolationmode none
attr recordingmode sum(packetBytes)
attr source receivedPacketFromUpperLayer
par Highway.car[0].cellularNic.phy typename "\"simu5g.stack.phy.NRPhyUe\""
par Highway.car[0].cellularNic.phy ueTxPower 26
par Highway.car[0].cellularNic.phy eNodeBTxPower 46
par Highway.car[0].cellularNic.phy microTxPower 30
par Highway.car[0].cellularNic.phy txDirection "\"OMNI\""
par Highway.car[0].cellularNic.phy txAngle 0
par Highway.car[0].cellularNic.phy dynamicCellAssociation false
par Highway.car[0].cellularNic.phy enableHandover false
par Highway.car[0].cellularNic.phy handoverLatency 0.05s
attr unit s
par Highway.car[0].cellularNic.phy enableMulticastD2DRangeCheck false
par Highway.car[0].cellularNic.phy multicastD2DRange 1000m
attr unit m
par Highway.car[0].cellularNic.phy minRssiDefault true
par Highway.car[0].cellularNic.phy minRssi -99dB
attr unit dB
par Highway.car[0].cellularNic.phy d2dTxPower 26
par Highway.car[0].cellularNic.phy d2dMulticastCaptureEffect true
par Highway.car[0].cellularNic.phy d2dMulticastCaptureEffectFactor "\"RSRP\""
scalar Highway.car[0].cellularNic.phy averageCqiD2D:mean -nan
attr recordingmode mean
attr source averageCqiD2D
attr title "Average Cqi reported in D2D, mean"
attr unit cqi
scalar Highway.car[0].cellularNic.phy averageCqiUl:mean -nan
attr recordingmode mean
attr source averageCqiUl
attr title "Average Cqi reported in UL, mean"
attr unit cqi
scalar Highway.car[0].cellularNic.phy averageCqiUl:count 0
attr recordingmode count
attr source averageCqiUl
attr title "Average Cqi reported in UL, count"
attr unit cqi
scalar Highway.car[0].cellularNic.phy averageCqiDl:mean -nan
attr recordingmode mean
attr source averageCqiDl
attr title "Average Cqi reported in DL, mean"
attr unit cqi
scalar Highway.car[0].cellularNic.phy averageCqiDl:count 0
attr recordingmode count
attr source averageCqiDl
attr title "Average Cqi reported in DL, count"
attr unit cqi
par Highway.car[0].cellularNic.channelModel[0] typename "\"simu5g.stack.phy.ChannelModel.LteRealisticChannelModel\""
par Highway.car[0].cellularNic.channelModel[0] componentCarrierIndex 0
par Highway.car[0].cellularNic.channelModel[0] shadowing true
par Highway.car[0].cellularNic.channelModel[0] scenario "\"URBAN_MACROCELL\""
par Highway.car[0].cellularNic.channelModel[0] nodeb_height 25
par Highway.car[0].cellularNic.channelModel[0] building_height 20
par Highway.car[0].cellularNic.channelModel[0] inside_building false
par Highway.car[0].cellularNic.channelModel[0] street_wide 20
par Highway.car[0].cellularNic.channelModel[0] ue_height 1.5
par Highway.car[0].cellularNic.channelModel[0] tolerateMaxDistViolation false
par Highway.car[0].cellularNic.channelModel[0] useTorus false
par Highway.car[0].cellularNic.channelModel[0] correlation_distance 50
par Highway.car[0].cellularNic.channelModel[0] targetBler 0.01
par Highway.car[0].cellularNic.channelModel[0] harqReduction 0.2
par Highway.car[0].cellularNic.channelModel[0] lambdaMinTh 0.02
par Highway.car[0].cellularNic.channelModel[0] lambdaMaxTh 0.2
par Highway.car[0].cellularNic.channelModel[0] lambdaRatioTh 20
par Highway.car[0].cellularNic.channelModel[0] antennaGainUe 0
par Highway.car[0].cellularNic.channelModel[0] antennGainEnB 18
par Highway.car[0].cellularNic.channelModel[0] antennGainMicro 5
par Highway.car[0].cellularNic.channelModel[0] thermalNoise -104.5
par Highway.car[0].cellularNic.channelModel[0] ue_noise_figure 7
par Highway.car[0].cellularNic.channelModel[0] bs_noise_figure 5
par Highway.car[0].cellularNic.channelModel[0] cable_loss 2
par Highway.car[0].cellularNic.channelModel[0] dynamic_los false
par Highway.car[0].cellularNic.channelModel[0] fixed_los false
par Highway.car[0].cellularNic.channelModel[0] fading true
par Highway.car[0].cellularNic.channelModel[0] fading_type "\"JAKES\""
par Highway.car[0].cellularNic.channelModel[0] fading_paths 6
par Highway.car[0].cellularNic.channelModel[0] delay_rms 3.63e-07
par Highway.car[0].cellularNic.channelModel[0] bgCell_interference true
par Highway.car[0].cellularNic.channelModel[0] extCell_interference true
par Highway.car[0].cellularNic.channelModel[0] downlink_interference false
par Highway.car[0].cellularNic.channelModel[0] uplink_interference false
par Highway.car[0].cellularNic.channelModel[0] d2d_interference true
par Highway.car[0].cellularNic.channelModel[0] enable_extCell_los true
par Highway.car[0].cellularNic.channelModel[0] useRsrqFromLog false
par Highway.car[0].cellularNic.channelModel[0] rsrqShift 22
par Highway.car[0].cellularNic.channelModel[0] rsrqScale 1
par Highway.car[0].cellularNic.channelModel[0] collectSinrStatistics true
scalar Highway.car[0].cellularNic.channelModel[0] distance:mean -nan
attr recordingmode mean
attr source distance
attr title "distance between UE and serving base station, mean"
attr unit meters
scalar Highway.car[0].cellularNic.channelModel[0] measuredSinrUl:mean -nan
attr recordingmode mean
attr source measuredSinrUl
attr title "SINR measured at feedback computation, UL, mean"
attr unit dB
scalar Highway.car[0].cellularNic.channelModel[0] measuredSinrDl:mean -nan
attr recordingmode mean
attr source measuredSinrDl
attr title "SINR measured at feedback computation, DL, mean"
attr unit dB
scalar Highway.car[0].cellularNic.channelModel[0] rcvdSinrUl:mean -nan
attr recordingmode mean
attr source rcvdSinrUl
attr title "SINR measured at packet reception, UL, mean"
attr unit dB
scalar Highway.car[0].cellularNic.channelModel[0] rcvdSinrDl:mean -nan
attr recordingmode mean
attr source rcvdSinrDl
attr title "SINR measured at packet reception, DL, mean"
attr unit dB
par Highway.car[0].cellularNic.dlFbGen typename "\"simu5g.stack.phy.feedback.LteDlFeedbackGenerator\""
par Highway.car[0].cellularNic.dlFbGen feedbackType "\"ALLBANDS\""
par Highway.car[0].cellularNic.dlFbGen rbAllocationType "\"localized\""
par Highway.car[0].cellularNic.dlFbGen fbPeriod 6
par Highway.car[0].cellularNic.dlFbGen fbDelay 1
par Highway.car[0].cellularNic.dlFbGen usePeriodic true
par Highway.car[0].cellularNic.dlFbGen initialTxMode "\"SINGLE_ANTENNA_PORT0\""
par Highway.car[0].cellularNic.dlFbGen feedbackGeneratorType "\"IDEAL\""
par Highway.car[0].cellularNic.nrRlc.tm typename "\"simu5g.stack.rlc.LteRlcTm\""
par Highway.car[0].cellularNic.nrRlc.tm queueSize 2097152B
attr unit B
scalar Highway.car[0].cellularNic.nrRlc.tm rlcPacketLossDl:mean -nan
attr recordingmode mean
attr source rlcPacketLossDl
attr title "rlc Packet Loss, mean"
attr unit ""
scalar Highway.car[0].cellularNic.nrRlc.tm rlcPacketLossDl:sum 0
attr recordingmode sum
attr source rlcPacketLossDl
attr title "rlc Packet Loss, sum"
attr unit ""
scalar Highway.car[0].cellularNic.nrRlc.tm rlcPacketLossUl:mean -nan
attr recordingmode mean
attr source rlcPacketLossUl
attr title "rlc Packet Loss, mean"
attr unit ""
scalar Highway.car[0].cellularNic.nrRlc.tm rlcPacketLossUl:sum 0
attr recordingmode sum
attr source rlcPacketLossUl
attr title "rlc Packet Loss, sum"
attr unit ""
scalar Highway.car[0].cellularNic.nrRlc.tm sentPacketToLowerLayer:count 0
attr interpolationmode none
attr recordingmode count
attr source sentPacketToLowerLayer
scalar Highway.car[0].cellularNic.nrRlc.tm sentPacketToLowerLayer:sum(packetBytes) 0
attr interpolationmode none
attr recordingmode sum(packetBytes)
attr source sentPacketToLowerLayer
scalar Highway.car[0].cellularNic.nrRlc.tm sentPacketToUpperLayer:count 0
attr interpolationmode none
attr recordingmode count
attr source sentPacketToUpperLayer
scalar Highway.car[0].cellularNic.nrRlc.tm sentPacketToUpperLayer:sum(packetBytes) 0
attr interpolationmode none
attr recordingmode sum(packetBytes)
attr source sentPacketToUpperLayer
scalar Highway.car[0].cellularNic.nrRlc.tm receivedPacketFromLowerLayer:count 0
attr interpolationmode none
attr recordingmode count
attr source receivedPacketFromLowerLayer
scalar Highway.car[0].cellularNic.nrRlc.tm receivedPacketFromLowerLayer:sum(packetBytes) 0
attr interpolationmode none
attr recordingmode sum(packetBytes)
attr source receivedPacketFromLowerLayer
scalar Highway.car[0].cellularNic.nrRlc.tm receivedPacketFromUpperLayer:count 0
attr interpolationmode none
attr recordingmode count
attr source receivedPacketFromUpperLayer
scalar Highway.car[0].cellularNic.nrRlc.tm receivedPacketFromUpperLayer:sum(packetBytes) 0
attr interpolationmode none
attr recordingmode sum(packetBytes)
attr source receivedPacketFromUpperLayer
par Highway.car[0].cellularNic.nrRlc.um typename "\"simu5g.stack.rlc.LteRlcUmD2D\""
par Highway.car[0].cellularNic.nrRlc.um queueSize 2097152B
attr unit B
par Highway.car[0].cellularNic.nrRlc.um mapAllLcidsToSingleBearer false
scalar Highway.car[0].cellularNic.nrRlc.um rlcPduPacketLossD2D:mean -nan
attr recordingmode mean
attr source rlcPduPacketLossD2D
attr title "rlc Packet Loss, mean"
attr unit ""
scalar Highway.car[0].cellularNic.nrRlc.um rlcPduThroughputD2D:mean -nan
attr recordingmode mean
attr source rlcPduThroughputD2D
attr title "Throughput at the rlc layer D2D, mean"
attr unit Bps
scalar Highway.car[0].cellularNic.nrRlc.um rlcPduDelayD2D:mean -nan
attr recordingmode mean
attr source rlcPduDelayD2D
attr title "Delay at the rlc layer D2D, mean"
attr unit s
scalar Highway.car[0].cellularNic.nrRlc.um rlcCellThroughputD2D:mean -nan
attr recordingmode mean
attr source rlcCellThroughputD2D
attr title "Cell Throughput at the rlc layer D2D, mean"
attr unit Bps
scalar Highway.car[0].cellularNic.nrRlc.um rlcCellPacketLossD2D:mean -nan
attr recordingmode mean
attr source rlcCellPacketLossD2D
attr title "rlc Cell Packet Loss, mean"
attr unit ""
scalar Highway.car[0].cellularNic.nrRlc.um rlcPacketLossD2D:mean -nan
attr recordingmode mean
attr source rlcPacketLossD2D
attr title "rlc Packet Loss, mean"
attr unit ""
scalar Highway.car[0].cellularNic.nrRlc.um rlcThroughputD2D:mean -nan
attr recordingmode mean
attr source rlcThroughputD2D
attr title "Throughput at the rlc layer D2D, mean"
attr unit Bps
scalar Highway.car[0].cellularNic.nrRlc.um rlcDelayD2D:mean -nan
attr recordingmode mean
attr source rlcDelayD2D
attr title "Delay at the rlc layer D2D, mean"
attr unit s
scalar Highway.car[0].cellularNic.nrRlc.um rlcPduPacketLossDl:mean -nan
attr recordingmode mean
attr source rlcPduPacketLossDl
attr title "rlc Packet Loss, mean"
attr unit ""
scalar Highway.car[0].cellularNic.nrRlc.um rlcPduPacketLossUl:mean -nan
attr recordingmode mean
attr source rlcPduPacketLossUl
attr title "rlc Packet Loss, mean"
attr unit ""
scalar Highway.car[0].cellularNic.nrRlc.um rlcPduThroughputUl:mean -nan
attr recordingmode mean
attr source rlcPduThroughputUl
attr title "Throughput at the rlc layer UL, mean"
attr unit Bps
scalar Highway.car[0].cellularNic.nrRlc.um rlcPduDelayUl:mean -nan
attr recordingmode mean
attr source rlcPduDelayUl
attr title "Delay at the rlc layer UL, mean"
attr unit s
scalar Highway.car[0].cellularNic.nrRlc.um rlcPduThroughputDl:mean -nan
attr recordingmode mean
attr source rlcPduThroughputDl
attr title "Throughput at the rlc layer DL, mean"
attr unit Bps
scalar Highway.car[0].cellularNic.nrRlc.um rlcPduDelayDl:mean -nan
attr recordingmode mean
attr source rlcPduDelayDl
attr title "Delay at the rlc layer UL, mean"
attr unit s
scalar Highway.car[0].cellularNic.nrRlc.um rlcCellPacketLossUl:mean -nan
attr recordingmode mean
attr source rlcCellPacketLossUl
attr title "rlc Cell Packet Loss, mean"
attr unit ""
scalar Highway.car[0].cellularNic.nrRlc.um rlcCellPacketLossDl:mean -nan
attr recordingmode mean
attr source rlcCellPacketLossDl
attr title "rlc Cell Packet Loss, mean"
attr unit ""
scalar Highway.car[0].cellularNic.nrRlc.um rlcCellThroughputDl:mean -nan
attr recordingmode mean
attr source rlcCellThroughputDl
attr title "Cell Throughput at the rlc layer DL, mean"
attr unit Bps
scalar Highway.car[0].cellularNic.nrRlc.um rlcCellThroughputUl:mean -nan
attr recordingmode mean
attr source rlcCellThroughputUl
attr title "Cell Throughput at the rlc layer UL, mean"
attr unit Bps
scalar Highway.car[0].cellularNic.nrRlc.um rlcPacketLossTotal:mean -nan
attr recordingmode mean
attr source rlcPacketLossTotal
attr title "rlc Packet Loss, mean"
attr unit ""
scalar Highway.car[0].cellularNic.nrRlc.um rlcThroughputUl:mean -nan
attr recordingmode mean
attr source rlcThroughputUl
attr title "Throughput at the rlc layer UL, mean"
attr unit Bps
scalar Highway.car[0].cellularNic.nrRlc.um rlcDelayUl:mean -nan
attr recordingmode mean
attr source rlcDelayUl
attr title "Delay at the rlc layer UL, mean"
attr unit s
scalar Highway.car[0].cellularNic.nrRlc.um rlcThroughputDl:mean -nan
attr recordingmode mean
attr source rlcThroughputDl
attr title "Throughput at the rlc layer DL, mean"
attr unit Bps
scalar Highway.car[0].cellularNic.nrRlc.um rlcDelayDl:mean -nan
attr recordingmode mean
attr source rlcDelayDl
attr title "Delay at the rlc layer DL, mean"
attr unit s
scalar Highway.car[0].cellularNic.nrRlc.um rlcPacketLossDl:mean -nan
attr recordingmode mean
attr source rlcPacketLossDl
attr title "rlc Packet Loss, mean"
attr unit ""
scalar Highway.car[0].cellularNic.nrRlc.um rlcPacketLossDl:sum 0
attr recordingmode sum
attr source rlcPacketLossDl
attr title "rlc Packet Loss, sum"
attr unit ""
scalar Highway.car[0].cellularNic.nrRlc.um rlcPacketLossUl:mean -nan
attr recordingmode mean
attr source rlcPacketLossUl
attr title "rlc Packet Loss, mean"
attr unit ""
scalar Highway.car[0].cellularNic.nrRlc.um rlcPacketLossUl:sum 0
attr recordingmode sum
attr source rlcPacketLossUl
attr title "rlc Packet Loss, sum"
attr unit ""
scalar Highway.car[0].cellularNic.nrRlc.um sentPacketToLowerLayer:count 0
attr interpolationmode none
attr recordingmode count
attr source sentPacketToLowerLayer
scalar Highway.car[0].cellularNic.nrRlc.um sentPacketToLowerLayer:sum(packetBytes) 0
attr interpolationmode none
attr recordingmode sum(packetBytes)
attr source sentPacketToLowerLayer
scalar Highway.car[0].cellularNic.nrRlc.um sentPacketToUpperLayer:count 0
attr interpolationmode none
attr recordingmode count
attr source sentPacketToUpperLayer
scalar Highway.car[0].cellularNic.nrRlc.um sentPacketToUpperLayer:sum(packetBytes) 0
attr interpolationmode none
attr recordingmode sum(packetBytes)
attr source sentPacketToUpperLayer
scalar Highway.car[0].cellularNic.nrRlc.um receivedPacketFromLowerLayer:count 0
attr interpolationmode none
attr recordingmode count
attr source receivedPacketFromLowerLayer
scalar Highway.car[0].cellularNic.nrRlc.um receivedPacketFromLowerLayer:sum(packetBytes) 0
attr interpolationmode none
attr recordingmode sum(packetBytes)
attr source receivedPacketFromLowerLayer
scalar Highway.car[0].cellularNic.nrRlc.um receivedPacketFromUpperLayer:count 0
attr interpolationmode none
attr recordingmode count
attr source receivedPacketFromUpperLayer
scalar Highway.car[0].cellularNic.nrRlc.um receivedPacketFromUpperLayer:sum(packetBytes) 0
attr interpolationmode none
attr recordingmode sum(packetBytes)
attr source receivedPacketFromUpperLayer
par Highway.car[0].cellularNic.nrRlc.am typename "\"simu5g.stack.rlc.LteRlcAm\""
scalar Highway.car[0].cellularNic.nrRlc.am rlcPduPacketLossDl:mean -nan
attr recordingmode mean
attr source rlcPduPacketLossDl
attr title "rlc Packet Loss, mean"
attr unit ""
scalar Highway.car[0].cellularNic.nrRlc.am rlcPduPacketLossUl:mean -nan
attr recordingmode mean
attr source rlcPduPacketLossUl
attr title "rlc Packet Loss, mean"
attr unit ""
scalar Highway.car[0].cellularNic.nrRlc.am rlcPduThroughputUl:mean -nan
attr recordingmode mean
attr source rlcPduThroughputUl
attr title "Throughput at the rlc layer UL, mean"
attr unit Bps
scalar Highway.car[0].cellularNic.nrRlc.am rlcPduDelayUl:mean -nan
attr recordingmode mean
attr source rlcPduDelayUl
attr title "Delay at the rlc layer UL, mean"
attr unit s
scalar Highway.car[0].cellularNic.nrRlc.am rlcPduThroughputDl:mean -nan
attr recordingmode mean
attr source rlcPduThroughputDl
attr title "Throughput at the rlc layer DL, mean"
attr unit Bps
scalar Highway.car[0].cellularNic.nrRlc.am rlcPduDelayDl:mean -nan
attr recordingmode mean
attr source rlcPduDelayDl
attr title "Delay at the rlc layer UL, mean"
attr unit s
scalar Highway.car[0].cellularNic.nrRlc.am rlcCellPacketLossUl:mean -nan
attr recordingmode mean
attr source rlcCellPacketLossUl
attr title "rlc Cell Packet Loss, mean"
attr unit ""
scalar Highway.car[0].cellularNic.nrRlc.am rlcCellPacketLossDl:mean -nan
attr recordingmode mean
attr source rlcCellPacketLossDl
attr title "rlc Cell Packet Loss, mean"
attr unit ""
scalar Highway.car[0].cellularNic.nrRlc.am rlcCellThroughputDl:mean -nan
attr recordingmode mean
attr source rlcCellThroughputDl
attr title "Cell Throughput at the rlc layer DL, mean"
attr unit Bps
scalar Highway.car[0].cellularNic.nrRlc.am rlcCellThroughputUl:mean -nan
attr recordingmode mean
attr source rlcCellThroughputUl
attr title "Cell Throughput at the rlc layer UL, mean"
attr unit Bps
scalar Highway.car[0].cellularNic.nrRlc.am rlcPacketLossTotal:mean -nan
attr recordingmode mean
attr source rlcPacketLossTotal
attr title "rlc Packet Loss, mean"
attr unit ""
scalar Highway.car[0].cellularNic.nrRlc.am rlcThroughputUl:mean -nan
attr recordingmode mean
attr source rlcThroughputUl
attr title "Throughput at the rlc layer UL, mean"
attr unit Bps
scalar Highway.car[0].cellularNic.nrRlc.am rlcDelayUl:mean -nan
attr recordingmode mean
attr source rlcDelayUl
attr title "Delay at the rlc layer UL, mean"
attr unit s
scalar Highway.car[0].cellularNic.nrRlc.am rlcThroughputDl:mean -nan
attr recordingmode mean
attr source rlcThroughputDl
attr title "Throughput at the rlc layer DL, mean"
attr unit Bps
scalar Highway.car[0].cellularNic.nrRlc.am rlcDelayDl:mean -nan
attr recordingmode mean
attr source rlcDelayDl
attr title "Delay at the rlc layer UL, mean"
attr unit s
scalar Highway.car[0].cellularNic.nrRlc.am rlcPacketLossDl:mean -nan
attr recordingmode mean
attr source rlcPacketLossDl
attr title "rlc Packet Loss, mean"
attr unit ""
scalar Highway.car[0].cellularNic.nrRlc.am rlcPacketLossUl:mean -nan
attr recordingmode mean
attr source rlcPacketLossUl
attr title "rlc Packet Loss, mean"
attr unit ""
par Highway.car[0].cellularNic.nrRlc.mux typename "\"simu5g.stack.rlc.LteRlcMux\""
par Highway.car[0].cellularNic.nrRlc typename "\"simu5g.stack.rlc.LteRlc\""
par Highway.car[0].cellularNic.nrRlc LteRlcUmType "\"LteRlcUm\""
par Highway.car[0].cellularNic.nrRlc d2dCapable true
par Highway.car[0].cellularNic.nrRlc umType "\"LteRlcUmD2D\""
par Highway.car[0].cellularNic.nrMac typename "\"simu5g.stack.mac.NRMacUe\""
par Highway.car[0].cellularNic.nrMac interfaceTableModule "\"Highway.car[0].interfaceTable\""
par Highway.car[0].cellularNic.nrMac interfaceName "\"cellular\""
par Highway.car[0].cellularNic.nrMac queueSize 2097152B
attr unit B
par Highway.car[0].cellularNic.nrMac muMimo true
par Highway.car[0].cellularNic.nrMac harqProcesses 8
par Highway.car[0].cellularNic.nrMac maxHarqRtx 3
par Highway.car[0].cellularNic.nrMac harqFbEvaluationTimer 4
par Highway.car[0].cellularNic.nrMac statDisplay false
par Highway.car[0].cellularNic.nrMac usePreconfiguredTxParams false
par Highway.car[0].cellularNic.nrMac d2dCqi 7
scalar Highway.car[0].cellularNic.nrMac rcvdD2DModeSwitchNotification:count 0
attr recordingmode count
attr source rcvdD2DModeSwitchNotification
attr title "Reception of mode switch notification (tx side), count"
attr unit ""
scalar Highway.car[0].cellularNic.nrMac macThroughputD2D:mean -nan
attr recordingmode mean
attr source macThroughputD2D
attr title "Throughput at the MAC layer D2D, mean"
attr unit Bps
scalar Highway.car[0].cellularNic.nrMac macDelayD2D:mean -nan
attr recordingmode mean
attr source macDelayD2D
attr title "Delay at the MAC layer D2D, mean"
attr unit s
scalar Highway.car[0].cellularNic.nrMac macPacketLossD2D:mean -nan
attr recordingmode mean
attr source macPacketLossD2D
attr title "Mac Packet Loss D2D, mean"
attr unit ""
scalar Highway.car[0].cellularNic.nrMac harqErrorRateD2D:mean -nan
attr recordingmode mean
attr source harqErrorRateD2D
attr title "Harq Error Rate D2D, mean"
attr unit ""
scalar Highway.car[0].cellularNic.nrMac harqErrorRate_4th_D2D:mean -nan
attr recordingmode mean
attr source harqErrorRate_4th_D2D
attr title "Harq Error Rate D2D (4th Tx), mean"
attr unit ""
scalar Highway.car[0].cellularNic.nrMac harqErrorRate_3rd_D2D:mean -nan
attr recordingmode mean
attr source harqErrorRate_3rd_D2D
attr title "Harq Error Rate D2D (3rd Tx), mean"
attr unit ""
scalar Highway.car[0].cellularNic.nrMac harqErrorRate_2nd_D2D:mean -nan
attr recordingmode mean
attr source harqErrorRate_2nd_D2D
attr title "Harq Error Rate D2D (2nd Tx), mean"
attr unit ""
scalar Highway.car[0].cellularNic.nrMac harqErrorRate_1st_D2D:mean -nan
attr recordingmode mean
attr source harqErrorRate_1st_D2D
attr title "Harq Error Rate D2D (1st Tx), mean"
attr unit ""
scalar Highway.car[0].cellularNic.nrMac measuredItbs:mean -nan
attr recordingmode mean
attr source measuredItbs
attr title "TBS index, mean"
attr unit ""
scalar Highway.car[0].cellularNic.nrMac harqErrorRate_4th_Dl:mean -nan
attr recordingmode mean
attr source harqErrorRate_4th_Dl
attr title "Harq Error Rate Dl (4th tx), mean"
attr unit ""
scalar Highway.car[0].cellularNic.nrMac harqErrorRate_4th_Ul:mean -nan
attr recordingmode mean
attr source harqErrorRate_4th_Ul
attr title "Harq Error Rate Ul (4th tx), mean"
attr unit ""
scalar Highway.car[0].cellularNic.nrMac harqErrorRate_3rd_Dl:mean -nan
attr recordingmode mean
attr source harqErrorRate_3rd_Dl
attr title "Harq Error Rate Dl (3rd tx), mean"
attr unit ""
scalar Highway.car[0].cellularNic.nrMac harqErrorRate_3rd_Ul:mean -nan
attr recordingmode mean
attr source harqErrorRate_3rd_Ul
attr title "Harq Error Rate Ul (3rd tx), mean"
attr unit ""
scalar Highway.car[0].cellularNic.nrMac harqErrorRate_2nd_Dl:mean -nan
attr recordingmode mean
attr source harqErrorRate_2nd_Dl
attr title "Harq Error Rate Dl (2nd tx), mean"
attr unit ""
scalar Highway.car[0].cellularNic.nrMac harqErrorRate_2nd_Ul:mean -nan
attr recordingmode mean
attr source harqErrorRate_2nd_Ul
attr title "Harq Error Rate Ul (2nd tx), mean"
attr unit ""
scalar Highway.car[0].cellularNic.nrMac harqErrorRate_1st_Dl:mean -nan
attr recordingmode mean
attr source harqErrorRate_1st_Dl
attr title "Harq Error Rate Dl (1st tx), mean"
attr unit ""
scalar Highway.car[0].cellularNic.nrMac harqErrorRate_1st_Ul:mean -nan
attr recordingmode mean
attr source harqErrorRate_1st_Ul
attr title "Harq Error Rate Ul (1st tx), mean"
attr unit ""
scalar Highway.car[0].cellularNic.nrMac harqTxAttemptsUl:mean -nan
attr recordingmode mean
attr source harqTxAttemptsUl
attr title "Harq Tx Attempts Ul, mean"
attr unit ""
scalar Highway.car[0].cellularNic.nrMac harqTxAttemptsDl:mean -nan
attr recordingmode mean
attr source harqTxAttemptsDl
attr title "Harq Tx Attempts Dl, mean"
attr unit ""
scalar Highway.car[0].cellularNic.nrMac harqErrorRateDl:mean -nan
attr recordingmode mean
attr source harqErrorRateDl
attr title "Harq Error Rate Dl, mean"
attr unit ""
scalar Highway.car[0].cellularNic.nrMac harqErrorRateUl:mean -nan
attr recordingmode mean
attr source harqErrorRateUl
attr title "Harq Error Rate Ul, mean"
attr unit ""
scalar Highway.car[0].cellularNic.nrMac macBufferOverFlowD2D:mean -nan
attr recordingmode mean
attr source macBufferOverFlowD2D
attr title "Mac buffer overflow as function of time, mean"
attr unit Byte/s
scalar Highway.car[0].cellularNic.nrMac macBufferOverFlowUl:mean -nan
attr recordingmode mean
attr source macBufferOverFlowUl
attr title "Mac buffer overflow as function of time, mean"
attr unit Byte/s
scalar Highway.car[0].cellularNic.nrMac macBufferOverFlowDl:mean -nan
attr recordingmode mean
attr source macBufferOverFlowDl
attr title "Mac buffer overflow as function of time, mean"
attr unit Byte/s
scalar Highway.car[0].cellularNic.nrMac macPacketLossDl:mean -nan
attr recordingmode mean
attr source macPacketLossDl
attr title "Mac Packet Loss Dl, mean"
attr unit ""
scalar Highway.car[0].cellularNic.nrMac macPacketLossUl:mean -nan
attr recordingmode mean
attr source macPacketLossUl
attr title "Mac Packet Loss Ul, mean"
attr unit ""
scalar Highway.car[0].cellularNic.nrMac macCellPacketLossUl:mean -nan
attr recordingmode mean
attr source macCellPacketLossUl
attr title "Mac Cell Packet Loss Ul, mean"
attr unit ""
scalar Highway.car[0].cellularNic.nrMac macCellPacketLossDl:mean -nan
attr recordingmode mean
attr source macCellPacketLossDl
attr title "Mac Cell Packet Loss Dl, mean"
attr unit ""
scalar Highway.car[0].cellularNic.nrMac macCellThroughputDl:mean -nan
attr recordingmode mean
attr source macCellThroughputDl
attr title "Cell Throughput at the MAC layer DL, mean"
attr unit Bps
scalar Highway.car[0].cellularNic.nrMac macCellThroughputUl:mean -nan
attr recordingmode mean
attr source macCellThroughputUl
attr title "Cell Throughput at the MAC layer UL, mean"
attr unit Bps
scalar Highway.car[0].cellularNic.nrMac macThroughputUl:mean -nan
attr recordingmode mean
attr source macThroughputUl
attr title "Throughput at the MAC layer UL, mean"
attr unit Bps
scalar Highway.car[0].cellularNic.nrMac macDelayUl:mean -nan
attr recordingmode mean
attr source macDelayUl
attr title "Delay at the MAC layer UL, mean"
attr unit s
scalar Highway.car[0].cellularNic.nrMac macThroughputDl:mean -nan
attr recordingmode mean
attr source macThroughputDl
attr title "Throughput at the MAC layer DL, mean"
attr unit Bps
scalar Highway.car[0].cellularNic.nrMac macDelayDl:mean -nan
attr recordingmode mean
attr source macDelayDl
attr title "Delay at the MAC layer UL, mean"
attr unit s
scalar Highway.car[0].cellularNic.nrMac sentPacketToLowerLayer:count 0
attr interpolationmode none
attr recordingmode count
attr source sentPacketToLowerLayer
scalar Highway.car[0].cellularNic.nrMac sentPacketToLowerLayer:sum(packetBytes) 0
attr interpolationmode none
attr recordingmode sum(packetBytes)
attr source sentPacketToLowerLayer
scalar Highway.car[0].cellularNic.nrMac sentPacketToUpperLayer:count 0
attr interpolationmode none
attr recordingmode count
attr source sentPacketToUpperLayer
scalar Highway.car[0].cellularNic.nrMac sentPacketToUpperLayer:sum(packetBytes) 0
attr interpolationmode none
attr recordingmode sum(packetBytes)
attr source sentPacketToUpperLayer
scalar Highway.car[0].cellularNic.nrMac receivedPacketFromLowerLayer:count 0
attr interpolationmode none
attr recordingmode count
attr source receivedPacketFromLowerLayer
scalar Highway.car[0].cellularNic.nrMac receivedPacketFromLowerLayer:sum(packetBytes) 0
attr interpolationmode none
attr recordingmode sum(packetBytes)
attr source receivedPacketFromLowerLayer
scalar Highway.car[0].cellularNic.nrMac receivedPacketFromUpperLayer:count 0
attr interpolationmode none
attr recordingmode count
attr source receivedPacketFromUpperLayer
scalar Highway.car[0].cellularNic.nrMac receivedPacketFromUpperLayer:sum(packetBytes) 0
attr interpolationmode none
attr recordingmode sum(packetBytes)
attr source receivedPacketFromUpperLayer
par Highway.car[0].cellularNic.nrPhy typename "\"simu5g.stack.phy.NRPhyUe\""
par Highway.car[0].cellularNic.nrPhy ueTxPower 26
par Highway.car[0].cellularNic.nrPhy eNodeBTxPower 46
par Highway.car[0].cellularNic.nrPhy microTxPower 30
par Highway.car[0].cellularNic.nrPhy txDirection "\"OMNI\""
par Highway.car[0].cellularNic.nrPhy txAngle 0
par Highway.car[0].cellularNic.nrPhy dynamicCellAssociation true
par Highway.car[0].cellularNic.nrPhy enableHandover true
par Highway.car[0].cellularNic.nrPhy handoverLatency 0.05s
attr unit s
par Highway.car[0].cellularNic.nrPhy enableMulticastD2DRangeCheck false
par Highway.car[0].cellularNic.nrPhy multicastD2DRange 1000m
attr unit m
par Highway.car[0].cellularNic.nrPhy minRssiDefault true
par Highway.car[0].cellularNic.nrPhy minRssi -99dB
attr unit dB
par Highway.car[0].cellularNic.nrPhy d2dTxPower 26
par Highway.car[0].cellularNic.nrPhy d2dMulticastCaptureEffect true
par Highway.car[0].cellularNic.nrPhy d2dMulticastCaptureEffectFactor "\"RSRP\""
scalar Highway.car[0].cellularNic.nrPhy averageCqiD2D:mean -nan
attr recordingmode mean
attr source averageCqiD2D
attr title "Average Cqi reported in D2D, mean"
attr unit cqi
scalar Highway.car[0].cellularNic.nrPhy averageCqiUl:mean -nan
attr recordingmode mean
attr source averageCqiUl
attr title "Average Cqi reported in UL, mean"
attr unit cqi
scalar Highway.car[0].cellularNic.nrPhy averageCqiUl:count 0
attr recordingmode count
attr source averageCqiUl
attr title "Average Cqi reported in UL, count"
attr unit cqi
scalar Highway.car[0].cellularNic.nrPhy averageCqiDl:mean -nan
attr recordingmode mean
attr source averageCqiDl
attr title "Average Cqi reported in DL, mean"
attr unit cqi
scalar Highway.car[0].cellularNic.nrPhy averageCqiDl:count 0
attr recordingmode count
attr source averageCqiDl
attr title "Average Cqi reported in DL, count"
attr unit cqi
par Highway.car[0].cellularNic.nrChannelModel[0] typename "\"simu5g.stack.phy.ChannelModel.NRChannelModel_3GPP38_901\""
par Highway.car[0].cellularNic.nrChannelModel[0] componentCarrierIndex 0
par Highway.car[0].cellularNic.nrChannelModel[0] shadowing true
par Highway.car[0].cellularNic.nrChannelModel[0] scenario "\"URBAN_MACROCELL\""
par Highway.car[0].cellularNic.nrChannelModel[0] nodeb_height 25
par Highway.car[0].cellularNic.nrChannelModel[0] building_height 20
par Highway.car[0].cellularNic.nrChannelModel[0] inside_building false
par Highway.car[0].cellularNic.nrChannelModel[0] street_wide 20
par Highway.car[0].cellularNic.nrChannelModel[0] ue_height 1.5
par Highway.car[0].cellularNic.nrChannelModel[0] tolerateMaxDistViolation false
par Highway.car[0].cellularNic.nrChannelModel[0] useTorus false
par Highway.car[0].cellularNic.nrChannelModel[0] correlation_distance 50
par Highway.car[0].cellularNic.nrChannelModel[0] targetBler 0.01
par Highway.car[0].cellularNic.nrChannelModel[0] harqReduction 0.2
par Highway.car[0].cellularNic.nrChannelModel[0] lambdaMinTh 0.02
par Highway.car[0].cellularNic.nrChannelModel[0] lambdaMaxTh 0.2
par Highway.car[0].cellularNic.nrChannelModel[0] lambdaRatioTh 20
par Highway.car[0].cellularNic.nrChannelModel[0] antennaGainUe 0
par Highway.car[0].cellularNic.nrChannelModel[0] antennGainEnB 18
par Highway.car[0].cellularNic.nrChannelModel[0] antennGainMicro 5
par Highway.car[0].cellularNic.nrChannelModel[0] thermalNoise -104.5
par Highway.car[0].cellularNic.nrChannelModel[0] ue_noise_figure 7
par Highway.car[0].cellularNic.nrChannelModel[0] bs_noise_figure 5
par Highway.car[0].cellularNic.nrChannelModel[0] cable_loss 2
par Highway.car[0].cellularNic.nrChannelModel[0] dynamic_los false
par Highway.car[0].cellularNic.nrChannelModel[0] fixed_los false
par Highway.car[0].cellularNic.nrChannelModel[0] fading true
par Highway.car[0].cellularNic.nrChannelModel[0] fading_type "\"JAKES\""
par Highway.car[0].cellularNic.nrChannelModel[0] fading_paths 6
par Highway.car[0].cellularNic.nrChannelModel[0] delay_rms 3.63e-07
par Highway.car[0].cellularNic.nrChannelModel[0] bgCell_interference true
par Highway.car[0].cellularNic.nrChannelModel[0] extCell_interference true
par Highway.car[0].cellularNic.nrChannelModel[0] downlink_interference false
par Highway.car[0].cellularNic.nrChannelModel[0] uplink_interference false
par Highway.car[0].cellularNic.nrChannelModel[0] d2d_interference true
par Highway.car[0].cellularNic.nrChannelModel[0] enable_extCell_los true
par Highway.car[0].cellularNic.nrChannelModel[0] useRsrqFromLog false
par Highway.car[0].cellularNic.nrChannelModel[0] rsrqShift 22
par Highway.car[0].cellularNic.nrChannelModel[0] rsrqScale 1
par Highway.car[0].cellularNic.nrChannelModel[0] collectSinrStatistics true
par Highway.car[0].cellularNic.nrChannelModel[0] useBuildingPenetrationLossHighLossModel false
scalar Highway.car[0].cellularNic.nrChannelModel[0] distance:mean 186.03624137213
attr recordingmode mean
attr source distance
attr title "distance between UE and serving base station, mean"
attr unit meters
scalar Highway.car[0].cellularNic.nrChannelModel[0] measuredSinrUl:mean 39.609353209341
attr recordingmode mean
attr source measuredSinrUl
attr title "SINR measured at feedback computation, UL, mean"
attr unit dB
scalar Highway.car[0].cellularNic.nrChannelModel[0] measuredSinrDl:mean 58.154878272267
attr recordingmode mean
attr source measuredSinrDl
attr title "SINR measured at feedback computation, DL, mean"
attr unit dB
scalar Highway.car[0].cellularNic.nrChannelModel[0] rcvdSinrUl:mean -nan
attr recordingmode mean
attr source rcvdSinrUl
attr title "SINR measured at packet reception, UL, mean"
attr unit dB
scalar Highway.car[0].cellularNic.nrChannelModel[0] rcvdSinrDl:mean -nan
attr recordingmode mean
attr source rcvdSinrDl
attr title "SINR measured at packet reception, DL, mean"
attr unit dB
par Highway.car[0].cellularNic.nrDlFbGen typename "\"simu5g.stack.phy.feedback.LteDlFeedbackGenerator\""
par Highway.car[0].cellularNic.nrDlFbGen feedbackType "\"ALLBANDS\""
par Highway.car[0].cellularNic.nrDlFbGen rbAllocationType "\"localized\""
par Highway.car[0].cellularNic.nrDlFbGen fbPeriod 6
par Highway.car[0].cellularNic.nrDlFbGen fbDelay 1
par Highway.car[0].cellularNic.nrDlFbGen usePeriodic true
par Highway.car[0].cellularNic.nrDlFbGen initialTxMode "\"SINGLE_ANTENNA_PORT0\""
par Highway.car[0].cellularNic.nrDlFbGen feedbackGeneratorType "\"IDEAL\""
par Highway.car[0].cellularNic typename "\"simu5g.stack.NRNicUe\""
par Highway.car[0].cellularNic displayStringTextFormat "\"%a (%i)\\n%m\""
par Highway.car[0].cellularNic recordPcap false
par Highway.car[0].cellularNic numPcapRecorders 0
par Highway.car[0].cellularNic isWireless true
par Highway.car[0].cellularNic interfaceTableModule "\"Highway.car[0].interfaceTable\""
par Highway.car[0].cellularNic routingTableModule "\"Highway.car[0].ipv4.routingTable\""
par Highway.car[0].cellularNic LtePdcpRrcType "\"NRPdcpRrcUe\""
par Highway.car[0].cellularNic LteMacType "\"LteMacUeD2D\""
par Highway.car[0].cellularNic PacketFlowManagerType "\"PacketFlowManagerUe\""
par Highway.car[0].cellularNic hasRNISupport false
par Highway.car[0].cellularNic LtePhyType "\"NRPhyUe\""
par Highway.car[0].cellularNic nodeType "\"UE\""
par Highway.car[0].cellularNic processingDelayIn 0s
attr unit s
par Highway.car[0].cellularNic processingDelayOut 0s
attr unit s
par Highway.car[0].cellularNic LteChannelModelType "\"LteRealisticChannelModel\""
par Highway.car[0].cellularNic d2dCapable true
par Highway.car[0].cellularNic dualConnectivityEnabled false
par Highway.car[0].cellularNic numCarriers 1
par Highway.car[0].cellularNic address "\"0A-AA-00-00-00-03\""
attr mutable ""
par Highway.car[0].cellularNic d2dInitialMode false
par Highway.car[0].cellularNic NRMacType "\"NRMacUe\""
par Highway.car[0].cellularNic NRPhyType "\"NRPhyUe\""
par Highway.car[0].cellularNic NRChannelModelType "\"NRChannelModel_3GPP38_901\""
par Highway.car[0].cellularNic NRPacketFlowManagerType "\"NRPacketFlowManagerUe\""
par Highway.car[0].cellularNic numNRCarriers 1
scalar Highway.car[0].cellularNic packetDropInterfaceDown:count 0
attr interpolationmode none
attr recordingmode count
attr source packetDropReasonIsInterfaceDown(packetDropped)
attr title "packet drops: interface down, count"
scalar Highway.car[0].cellularNic packetDropInterfaceDown:sum(packetBytes) 0
attr interpolationmode none
attr recordingmode sum(packetBytes)
attr source packetDropReasonIsInterfaceDown(packetDropped)
attr title "packet drops: interface down, sum(packetBytes)"
scalar Highway.car[0].cellularNic packetDropNoCarrier:count 0
attr interpolationmode none
attr recordingmode count
attr source packetDropReasonIsNoCarrier(packetDropped)
attr title "packet drops: no carrier, count"
scalar Highway.car[0].cellularNic packetDropNoCarrier:sum(packetBytes) 0
attr interpolationmode none
attr recordingmode sum(packetBytes)
attr source packetDropReasonIsNoCarrier(packetDropped)
attr title "packet drops: no carrier, sum(packetBytes)"
par Highway.car[0].encap typename "\"inet.linklayer.ethernet.basic.EthernetEncapsulation\""
par Highway.car[0].encap registerProtocol true
par Highway.car[0].encap interfaceTableModule "\"Highway.car[0].interfaceTable\""
par Highway.car[0].encap fcsMode "\"declared\""
attr enum declared,computed
par Highway.car[0].encap stopOperationExtraTime -1s
attr unit s
par Highway.car[0].encap stopOperationTimeout 2s
attr unit s
scalar Highway.car[0].encap pauseSent:count 0
attr recordingmode count
attr title "pause sent, count"
scalar Highway.car[0].encap pauseSent:sum 0
attr recordingmode sum
attr title "pause sent, sum"
scalar Highway.car[0].encap decapPk:count 0
attr interpolationmode none
attr recordingmode count
attr source decapPk
attr title "packets decapsulated, count"
scalar Highway.car[0].encap decapPk:sum(packetBytes) 0
attr interpolationmode none
attr recordingmode sum(packetBytes)
attr source decapPk
attr title "packets decapsulated, sum(packetBytes)"
scalar Highway.car[0].encap encapPk:count 0
attr interpolationmode none
attr recordingmode count
attr source encapPk
attr title "packets encapsulated, count"
scalar Highway.car[0].encap encapPk:sum(packetBytes) 0
attr interpolationmode none
attr recordingmode sum(packetBytes)
attr source encapPk
attr title "packets encapsulated, sum(packetBytes)"
par Highway.car[0].ipv4.transportIn.channel typename "\"ned.IdealChannel\""
par Highway.car[0].ipv4.up.out[0].channel typename "\"ned.IdealChannel\""
par Highway.car[0].ipv4.lp.out[2].channel typename "\"ned.IdealChannel\""
par Highway.car[0].ipv4.ifIn.channel typename "\"ned.IdealChannel\""
par Highway.car[0].ipv4.configurator typename "\"inet.networklayer.configurator.ipv4.HostAutoConfigurator\""
par Highway.car[0].ipv4.configurator interfaceTableModule "\"Highway.car[0].interfaceTable\""
par Highway.car[0].ipv4.configurator interfaces "\"cellular lo0\""
par Highway.car[0].ipv4.configurator addressBase "\"10.0.0.0\""
par Highway.car[0].ipv4.configurator netmask "\"255.0.0.0\""
par Highway.car[0].ipv4.configurator mcastGroups "\"\""
par Highway.car[0].ipv4.routingTable typename "\"inet.networklayer.ipv4.Ipv4RoutingTable\""
par Highway.car[0].ipv4.routingTable interfaceTableModule "\"Highway.car[0].interfaceTable\""
par Highway.car[0].ipv4.routingTable routerId "\"auto\""
par Highway.car[0].ipv4.routingTable netmaskRoutes "\"*\""
par Highway.car[0].ipv4.routingTable forwarding false
par Highway.car[0].ipv4.routingTable multicastForwarding false
par Highway.car[0].ipv4.routingTable useAdminDist false
par Highway.car[0].ipv4.routingTable routingFile "\"\""
par Highway.car[0].ipv4.natTable typename "\"inet.networklayer.ipv4.Ipv4NatTable\""
par Highway.car[0].ipv4.natTable networkProtocolModule "\"^.ip\""
par Highway.car[0].ipv4.natTable config "<config/> at content:1"
par Highway.car[0].ipv4.up typename "\"inet.common.MessageDispatcher\""
par Highway.car[0].ipv4.up displayStringTextFormat "\"processed %p pk (%l)\""
par Highway.car[0].ipv4.up forwardServiceRegistration true
par Highway.car[0].ipv4.up forwardProtocolRegistration true
par Highway.car[0].ipv4.igmp typename "\"inet.networklayer.ipv4.Igmpv2\""
par Highway.car[0].ipv4.igmp interfaceTableModule "\"Highway.car[0].interfaceTable\""
par Highway.car[0].ipv4.igmp routingTableModule "\"Highway.car[0].ipv4.routingTable\""
par Highway.car[0].ipv4.igmp crcMode "\"declared\""
attr enum declared,computed
par Highway.car[0].ipv4.igmp enabled true
par Highway.car[0].ipv4.igmp robustnessVariable 2
par Highway.car[0].ipv4.igmp queryInterval 125s
attr unit s
par Highway.car[0].ipv4.igmp queryResponseInterval 10s
attr unit s
par Highway.car[0].ipv4.igmp groupMembershipInterval 260s
attr unit s
par Highway.car[0].ipv4.igmp otherQuerierPresentInterval 255s
attr unit s
par Highway.car[0].ipv4.igmp startupQueryInterval 31.25s
attr unit s
par Highway.car[0].ipv4.igmp startupQueryCount 2
par Highway.car[0].ipv4.igmp lastMemberQueryInterval 1s
attr unit s
par Highway.car[0].ipv4.igmp lastMemberQueryCount 2
par Highway.car[0].ipv4.igmp unsolicitedReportInterval 10s
attr unit s
par Highway.car[0].ipv4.icmp typename "\"inet.networklayer.ipv4.Icmp\""
par Highway.car[0].ipv4.icmp interfaceTableModule "\"Highway.car[0].interfaceTable\""
par Highway.car[0].ipv4.icmp routingTableModule "\"Highway.car[0].ipv4.routingTable\""
par Highway.car[0].ipv4.icmp crcMode "\"declared\""
attr enum declared,computed
attr mutable ""
par Highway.car[0].ipv4.icmp quoteLength 8B
attr mutable ""
attr unit B
par Highway.car[0].ipv4.mp typename "\"inet.common.MessageDispatcher\""
par Highway.car[0].ipv4.mp displayStringTextFormat "\"processed %p pk (%l)\""
par Highway.car[0].ipv4.mp forwardServiceRegistration true
par Highway.car[0].ipv4.mp forwardProtocolRegistration true
par Highway.car[0].ipv4.ip typename "\"inet.networklayer.ipv4.Ipv4\""
par Highway.car[0].ipv4.ip interfaceTableModule "\"Highway.car[0].interfaceTable\""
par Highway.car[0].ipv4.ip routingTableModule "\"Highway.car[0].ipv4.routingTable\""
par Highway.car[0].ipv4.ip arpModule "\"Highway.car[0].ipv4.arp\""
par Highway.car[0].ipv4.ip icmpModule "\"Highway.car[0].ipv4.icmp\""
par Highway.car[0].ipv4.ip crcMode "\"declared\""
attr enum declared,computed
par Highway.car[0].ipv4.ip timeToLive 32
par Highway.car[0].ipv4.ip multicastTimeToLive 32
par Highway.car[0].ipv4.ip fragmentTimeout 60s
attr unit s
par Highway.car[0].ipv4.ip limitedBroadcast false
par Highway.car[0].ipv4.ip directBroadcastInterfaces "\"\""
scalar Highway.car[0].ipv4.ip packetDropAddressResolutionFailed:count 0
attr interpolationmode none
attr recordingmode count
attr source packetDropReasonIsAddressResolutionFailed(packetDropped)
attr title "packet drop: address resolution failed, count"
scalar Highway.car[0].ipv4.ip packetDropAddressResolutionFailed:sum(packetBytes) 0
attr interpolationmode none
attr recordingmode sum(packetBytes)
attr source packetDropReasonIsAddressResolutionFailed(packetDropped)
attr title "packet drop: address resolution failed, sum(packetBytes)"
scalar Highway.car[0].ipv4.ip packetDropHopLimitReached:count 0
attr interpolationmode none
attr recordingmode count
attr source packetDropReasonIsHopLimitReached(packetDropped)
attr title "packet drop: hop limit reached, count"
scalar Highway.car[0].ipv4.ip packetDropHopLimitReached:sum(packetBytes) 0
attr interpolationmode none
attr recordingmode sum(packetBytes)
attr source packetDropReasonIsHopLimitReached(packetDropped)
attr title "packet drop: hop limit reached, sum(packetBytes)"
scalar Highway.car[0].ipv4.ip packetDropForwardingDisabled:count 0
attr interpolationmode none
attr recordingmode count
attr source packetDropReasonIsForwardingDisabled(packetDropped)
attr title "packet drop: forwarding disabled, count"
scalar Highway.car[0].ipv4.ip packetDropForwardingDisabled:sum(packetBytes) 0
attr interpolationmode none
attr recordingmode sum(packetBytes)
attr source packetDropReasonIsForwardingDisabled(packetDropped)
attr title "packet drop: forwarding disabled, sum(packetBytes)"
scalar Highway.car[0].ipv4.ip packetDropNoInterfaceFound:count 0
attr interpolationmode none
attr recordingmode count
attr source packetDropReasonIsNoInterfaceFound(packetDropped)
attr title "packet drop: no interface found, count"
scalar Highway.car[0].ipv4.ip packetDropNoInterfaceFound:sum(packetBytes) 0
attr interpolationmode none
attr recordingmode sum(packetBytes)
attr source packetDropReasonIsNoInterfaceFound(packetDropped)
attr title "packet drop: no interface found, sum(packetBytes)"
scalar Highway.car[0].ipv4.ip packetDropNoRouteFound:count 0
attr interpolationmode none
attr recordingmode count
attr source packetDropReasonIsNoRouteFound(packetDropped)
attr title "packet drop: no route found, count"
scalar Highway.car[0].ipv4.ip packetDropNoRouteFound:sum(packetBytes) 0
attr interpolationmode none
attr recordingmode sum(packetBytes)
attr source packetDropReasonIsNoRouteFound(packetDropped)
attr title "packet drop: no route found, sum(packetBytes)"
scalar Highway.car[0].ipv4.ip packetDropUndefined:count 0
attr interpolationmode none
attr recordingmode count
attr source packetDropReasonIsUndefined(packetDropped)
attr title "packet drop: undefined, count"
scalar Highway.car[0].ipv4.ip packetDropUndefined:sum(packetBytes) 0
attr interpolationmode none
attr recordingmode sum(packetBytes)
attr source packetDropReasonIsUndefined(packetDropped)
attr title "packet drop: undefined, sum(packetBytes)"
par Highway.car[0].ipv4.arp typename "\"inet.networklayer.arp.ipv4.Arp\""
par Highway.car[0].ipv4.arp interfaceTableModule "\"Highway.car[0].interfaceTable\""
par Highway.car[0].ipv4.arp routingTableModule "\"Highway.car[0].ipv4.routingTable\""
par Highway.car[0].ipv4.arp retryTimeout 1s
attr unit s
par Highway.car[0].ipv4.arp retryCount 3
par Highway.car[0].ipv4.arp cacheTimeout 120s
attr unit s
par Highway.car[0].ipv4.arp proxyArpInterfaces "\"*\""
scalar Highway.car[0].ipv4.arp arpResolutionFailed:count 0
attr recordingmode count
attr title "ARP failed resolutions, count"
scalar Highway.car[0].ipv4.arp arpResolutionCompleted:count 0
attr recordingmode count
attr title "ARP completed resolutions, count"
scalar Highway.car[0].ipv4.arp arpResolutionInitiated:count 0
attr recordingmode count
attr title "ARP initiated resolutions, count"
scalar Highway.car[0].ipv4.arp arpReplySent:count 0
attr recordingmode count
attr source arpReplySent
attr title "ARP replies sent, count"
scalar Highway.car[0].ipv4.arp arpReplySent:sum(packetBytes) 0
attr recordingmode sum(packetBytes)
attr source arpReplySent
attr title "ARP replies sent, sum(packetBytes)"
scalar Highway.car[0].ipv4.arp arpRequestSent:count 0
attr recordingmode count
attr source arpRequestSent
attr title "ARP request sent, count"
scalar Highway.car[0].ipv4.arp arpRequestSent:sum(packetBytes) 0
attr recordingmode sum(packetBytes)
attr source arpRequestSent
attr title "ARP request sent, sum(packetBytes)"
par Highway.car[0].ipv4.lp typename "\"inet.common.MessageDispatcher\""
par Highway.car[0].ipv4.lp displayStringTextFormat "\"processed %p pk (%l)\""
par Highway.car[0].ipv4.lp forwardServiceRegistration true
par Highway.car[0].ipv4.lp forwardProtocolRegistration true
par Highway.car[0].ipv4 typename "\"inet.networklayer.ipv4.Ipv4NetworkLayer\""
par Highway.car[0].ipv4 forwarding false
par Highway.car[0].ipv4 multicastForwarding false
par Highway.car[0].ipv4 interfaceTableModule "\"Highway.car[0].interfaceTable\""
par Highway.car[0].ipv4 displayStringTextFormat "\"%i\""
par Highway.car[0].udp typename "\"inet.transportlayer.udp.Udp\""
par Highway.car[0].udp interfaceTableModule "\"Highway.car[0].interfaceTable\""
par Highway.car[0].udp icmpModule "\"^.ipv4.icmp\""
par Highway.car[0].udp icmpv6Module "\"^.ipv6.icmpv6\""
par Highway.car[0].udp crcMode "\"declared\""
attr enum disabled,declared,computed
par Highway.car[0].udp defaultMulticastLoop true
scalar Highway.car[0].udp packetReceived:count 0
attr interpolationmode none
attr recordingmode count
attr source packetReceived
attr title "packets received, count"
scalar Highway.car[0].udp packetReceived:sum(packetBytes) 0
attr interpolationmode none
attr recordingmode sum(packetBytes)
attr source packetReceived
attr title "packets received, sum(packetBytes)"
scalar Highway.car[0].udp packetSent:count 0
attr interpolationmode none
attr recordingmode count
attr source packetSent
attr title "packets sent, count"
scalar Highway.car[0].udp packetSent:sum(packetBytes) 0
attr interpolationmode none
attr recordingmode sum(packetBytes)
attr source packetSent
attr title "packets sent, sum(packetBytes)"
scalar Highway.car[0].udp passedUpPk:count 0
attr interpolationmode none
attr recordingmode count
attr source packetSentToUpper
attr title "packets passed up, count"
scalar Highway.car[0].udp droppedPkWrongPort:count 0
attr interpolationmode none
attr recordingmode count
attr source packetDropReasonIsNoPortFound(packetDropped)
attr title "packets dropped (wrong port), count"
scalar Highway.car[0].udp droppedPkBadChecksum:count 0
attr interpolationmode none
attr recordingmode count
attr source packetDropReasonIsIncorrectlyReceived(packetDropped)
attr title "packets dropped (checksum error), count"
par Highway.car[0].tcp typename "\"inet.transportlayer.tcp.Tcp\""
par Highway.car[0].tcp crcMode "\"declared\""
attr enum declared,computed
par Highway.car[0].tcp advertisedWindow 7504
par Highway.car[0].tcp delayedAcksEnabled false
par Highway.car[0].tcp nagleEnabled true
par Highway.car[0].tcp limitedTransmitEnabled false
par Highway.car[0].tcp increasedIWEnabled false
par Highway.car[0].tcp sackSupport false
par Highway.car[0].tcp windowScalingSupport false
par Highway.car[0].tcp windowScalingFactor -1
par Highway.car[0].tcp timestampSupport false
par Highway.car[0].tcp mss 536
par Highway.car[0].tcp msl 120s
attr unit s
par Highway.car[0].tcp tcpAlgorithmClass "\"TcpReno\""
attr enum TcpVegas,TcpWestwood,TcpNewReno,TcpReno,TcpTahoe,TcpNoCongestionControl
par Highway.car[0].tcp useDataNotification false
par Highway.car[0].tcp dupthresh 3
par Highway.car[0].tcp initialSsthresh 4294967295
par Highway.car[0].tcp stopOperationExtraTime 0s
attr unit s
par Highway.car[0].tcp stopOperationTimeout 2s
attr unit s
par Highway.car[0].tcp ecnWillingness false
par Highway.car[0].tcp dctcpGamma 0.0625
par Highway.car[0].at typename "\"inet.common.MessageDispatcher\""
par Highway.car[0].at displayStringTextFormat "\"processed %p pk (%l)\""
par Highway.car[0].at forwardServiceRegistration true
par Highway.car[0].at forwardProtocolRegistration true
par Highway.car[0].tn typename "\"inet.common.MessageDispatcher\""
par Highway.car[0].tn displayStringTextFormat "\"processed %p pk (%l)\""
par Highway.car[0].tn forwardServiceRegistration true
par Highway.car[0].tn forwardProtocolRegistration true
par Highway.car[0].nl typename "\"inet.common.MessageDispatcher\""
par Highway.car[0].nl displayStringTextFormat "\"processed %p pk (%l)\""
par Highway.car[0].nl forwardServiceRegistration true
par Highway.car[0].nl forwardProtocolRegistration true
par Highway.car[0] typename "\"simu5g.nodes.cars.NRCar\""
par Highway.car[0] numApps 0
par Highway.car[0] hasUdp true
par Highway.car[0] hasTcp true
par Highway.car[0] hasSctp false
par Highway.car[0] nodeType "\"UE\""
par Highway.car[0] masterId 0
attr mutable ""
par Highway.car[0] macNodeId 1025
attr mutable ""
par Highway.car[0] macCellId 0
attr mutable ""
par Highway.car[0] nicType "\"NRNicUe\""
par Highway.car[0] hasIpv4 true
par Highway.car[0] hasIpv6 false
par Highway.car[0] numEthInterfaces 0
par Highway.car[0] extHostAddress "\"\""
par Highway.car[0] numLoInterfaces 1
par Highway.car[0] numPcapRecorders 0
par Highway.car[0] hasRNISupport false
par Highway.car[0] nrMasterId 1
attr mutable ""
par Highway.car[0] nrMacNodeId 2049
attr mutable ""
par Highway.car[0] nrMacCellId 1
attr mutable ""
par Highway.car[1].interfaceTable typename "\"inet.networklayer.common.InterfaceTable\""
par Highway.car[1].interfaceTable displayAddresses false
par Highway.car[1].mobility typename "\"org.car2x.veins.subprojects.veins_inet.VeinsInetMobility\""
par Highway.car[1].mobility subjectModule "\"^\""
par Highway.car[1].mobility coordinateSystemModule "\"\""
par Highway.car[1].mobility displayStringTextFormat "\"p: %p\\nv: %v\""
attr mutable ""
par Highway.car[1].mobility updateDisplayString true
[...]
par Highway.gNodeB2.x2App[0].client connectAddress "\"gNodeB1%x2ppp0\""
par Highway.gNodeB2.x2App[0].client connectPort 5000
attr mutable ""
par Highway.gNodeB2.x2App[0].client startTime 0s
attr unit s
par Highway.gNodeB2.x2App[0].client numRequestsPerSession 1
par Highway.gNodeB2.x2App[0].client numPacketsToReceive 0
par Highway.gNodeB2.x2App[0].client requestLength 1452
par Highway.gNodeB2.x2App[0].client thinkTime 0s
attr unit s
par Highway.gNodeB2.x2App[0].client waitToClose 0s
attr unit s
par Highway.gNodeB2.x2App[0].client reconnectInterval 0s
attr unit s
par Highway.gNodeB2.x2App[0].client inboundStreams 17
par Highway.gNodeB2.x2App[0].client outboundStreams 1
par Highway.gNodeB2.x2App[0].client echo false
par Highway.gNodeB2.x2App[0].client ordered true
par Highway.gNodeB2.x2App[0].client queueSize 0
par Highway.gNodeB2.x2App[0].client prMethod 0
par Highway.gNodeB2.x2App[0].client prValue 0
par Highway.gNodeB2.x2App[0].client streamReset false
par Highway.gNodeB2.x2App[0].client streamRequestTime 0s
attr unit s
par Highway.gNodeB2.x2App[0].client streamResetType 5
par Highway.gNodeB2.x2App[0].client streamToReset 0
par Highway.gNodeB2.x2App[0].client stopTime -1s
attr unit s
par Highway.gNodeB2.x2App[0].client primaryTime 0s
attr unit s
par Highway.gNodeB2.x2App[0].client newPrimary "\"\""
par Highway.gNodeB2.x2App[0].client streamRequestLengths "\"\""
par Highway.gNodeB2.x2App[0].client streamRequestRatio "\"\""
par Highway.gNodeB2.x2App[0].client streamPriorities "\"\""
par Highway.gNodeB2.x2App[0].client finishEndsSimulation false
scalar Highway.gNodeB2.x2App[0].client packetReceived:count 8
attr interpolationmode none
attr recordingmode count
attr source packetReceived
attr title "packets received, count"
scalar Highway.gNodeB2.x2App[0].client packetReceived:sum(packetBytes) 120
attr interpolationmode none
attr recordingmode sum(packetBytes)
attr source packetReceived
attr title "packets received, sum(packetBytes)"
scalar Highway.gNodeB2.x2App[0].client packetSent:count 0
attr interpolationmode none
attr recordingmode count
attr source packetSent
attr title "packets sent, count"
scalar Highway.gNodeB2.x2App[0].client packetSent:sum(packetBytes) 0
attr interpolationmode none
attr recordingmode sum(packetBytes)
attr source packetSent
attr title "packets sent, sum(packetBytes)"
scalar Highway.gNodeB2.x2App[0].client echoedPk:count 0
attr interpolationmode none
attr recordingmode count
attr source echoedPk
attr title "packets echoed, count"
scalar Highway.gNodeB2.x2App[0].client echoedPk:sum(packetBytes) 0
attr interpolationmode none
attr recordingmode sum(packetBytes)
attr source echoedPk
attr title "packets echoed, sum(packetBytes)"
par Highway.gNodeB2.x2App[0].server typename "\"simu5g.x2.X2AppServer\""
par Highway.gNodeB2.x2App[0].server localAddress "\"\""
par Highway.gNodeB2.x2App[0].server localPort 5000
par Highway.gNodeB2.x2App[0].server echo false
par Highway.gNodeB2.x2App[0].server echoDelay 0s
attr unit s
par Highway.gNodeB2.x2App[0].server delayFirstRead 0s
attr unit s
par Highway.gNodeB2.x2App[0].server readingInterval 0s
attr unit s
par Highway.gNodeB2.x2App[0].server messagesToPush 0
par Highway.gNodeB2.x2App[0].server numPacketsToSendPerClient 0
par Highway.gNodeB2.x2App[0].server numPacketsToReceivePerClient 1
par Highway.gNodeB2.x2App[0].server requestLength 1452
par Highway.gNodeB2.x2App[0].server thinkTime 0s
attr unit s
par Highway.gNodeB2.x2App[0].server waitToClose 0s
attr unit s
par Highway.gNodeB2.x2App[0].server finishEndsSimulation false
par Highway.gNodeB2.x2App[0].server ordered true
par Highway.gNodeB2.x2App[0].server inboundStreams 17
par Highway.gNodeB2.x2App[0].server outboundStreams 1
par Highway.gNodeB2.x2App[0].server queueSize 0
par Highway.gNodeB2.x2App[0].server prMethod 0
par Highway.gNodeB2.x2App[0].server prValue 0
par Highway.gNodeB2.x2App[0].server streamReset false
par Highway.gNodeB2.x2App[0].server streamRequestTime 0s
attr unit s
par Highway.gNodeB2.x2App[0].server streamToReset 0
par Highway.gNodeB2.x2App[0].server streamPriorities "\"\""
scalar Highway.gNodeB2.x2App[0].server "bytes rcvd" 0
scalar Highway.gNodeB2.x2App[0].server throughput -nan
par Highway.gNodeB2.x2App[0] typename "\"simu5g.x2.LteX2App\""
par Highway.gNodeB2.sctp typename "\"inet.transportlayer.sctp.Sctp\""
par Highway.gNodeB2.sctp interfaceTableModule "\"Highway.gNodeB2.interfaceTable\""
par Highway.gNodeB2.sctp routingTableModule "\"^.ipv4.routingTable\""
par Highway.gNodeB2.sctp crcMode "\"declared\""
attr enum declared,computed
par Highway.gNodeB2.sctp numGapReports 3
par Highway.gNodeB2.sctp rtoInitial 3s
attr unit s
par Highway.gNodeB2.sctp rtoMin 1s
attr unit s
par Highway.gNodeB2.sctp rtoMax 60s
attr unit s
par Highway.gNodeB2.sctp rtoAlpha 0.125
par Highway.gNodeB2.sctp rtoBeta 0.25
par Highway.gNodeB2.sctp maxBurst 4
par Highway.gNodeB2.sctp maxBurstVariant "\"maxBurst\""
par Highway.gNodeB2.sctp initialWindow 0
par Highway.gNodeB2.sctp assocMaxRetrans 10
par Highway.gNodeB2.sctp pathMaxRetrans 5
par Highway.gNodeB2.sctp maxInitRetrans 8
par Highway.gNodeB2.sctp sackPeriod 0.2s
attr unit s
par Highway.gNodeB2.sctp sackFrequency 2
par Highway.gNodeB2.sctp reactivatePrimaryPath false
par Highway.gNodeB2.sctp sendQueueLimit 0
par Highway.gNodeB2.sctp validCookieLifetime 10s
attr unit s
par Highway.gNodeB2.sctp enableHeartbeats false
par Highway.gNodeB2.sctp hbInterval 30s
attr unit s
par Highway.gNodeB2.sctp sendHeartbeatsOnActivePaths false
par Highway.gNodeB2.sctp nagleEnabled false
par Highway.gNodeB2.sctp naglePoint 1468
par Highway.gNodeB2.sctp fragPoint 1452
par Highway.gNodeB2.sctp fastRecoverySupported true
par Highway.gNodeB2.sctp sctpAlgorithmClass "\"SctpAlg\""
par Highway.gNodeB2.sctp ccModule 0
par Highway.gNodeB2.sctp osbWithHeader false
par Highway.gNodeB2.sctp RTXMethod 0
par Highway.gNodeB2.sctp ssModule 0
par Highway.gNodeB2.sctp arwnd 65535
par Highway.gNodeB2.sctp swsLimit 3000
par Highway.gNodeB2.sctp udpEncapsEnabled false
par Highway.gNodeB2.sctp natFriendly false
par Highway.gNodeB2.sctp bytesToAddPerRcvdChunk 0
par Highway.gNodeB2.sctp bytesToAddPerPeerChunk 0
par Highway.gNodeB2.sctp tellArwnd false
par Highway.gNodeB2.sctp messageAcceptLimit 0
par Highway.gNodeB2.sctp fairStart 0s
attr unit s
par Highway.gNodeB2.sctp fairStop 0s
attr unit s
par Highway.gNodeB2.sctp streamsToPaths "\"\""
par Highway.gNodeB2.sctp startEndToEndDelay 0
par Highway.gNodeB2.sctp stopEndToEndDelay 10
par Highway.gNodeB2.sctp throughputInterval 1
par Highway.gNodeB2.sctp auth false
par Highway.gNodeB2.sctp chunks "\"\""
par Highway.gNodeB2.sctp padding false
par Highway.gNodeB2.sctp addIP false
par Highway.gNodeB2.sctp addTime 0s
attr unit s
par Highway.gNodeB2.sctp addAddress "\"\""
par Highway.gNodeB2.sctp addIpType "\"0\""
par Highway.gNodeB2.sctp packetDrop false
par Highway.gNodeB2.sctp sackNow false
par Highway.gNodeB2.sctp highSpeedCC false
par Highway.gNodeB2.sctp checkSackSeqNumber false
par Highway.gNodeB2.sctp nrSack false
par Highway.gNodeB2.sctp disableReneging false
par Highway.gNodeB2.sctp gapReportLimit 100000000
par Highway.gNodeB2.sctp gapListOptimizationVariant "\"none\""
par Highway.gNodeB2.sctp smartOverfullSACKHandling false
par Highway.gNodeB2.sctp allowQoSTracking false
par Highway.gNodeB2.sctp qosTrackingInterval 1s
attr unit s
par Highway.gNodeB2.sctp cmtSendAllVariant "\"normal\""
par Highway.gNodeB2.sctp cmtRetransmissionVariant "\"normal\""
par Highway.gNodeB2.sctp cmtCUCVariant "\"normal\""
par Highway.gNodeB2.sctp cmtBufferSplitVariant "\"none\""
par Highway.gNodeB2.sctp cmtBufferSplittingUsesOSB false
par Highway.gNodeB2.sctp cmtUseSFR true
par Highway.gNodeB2.sctp cmtUseDAC true
par Highway.gNodeB2.sctp cmtUseFRC true
par Highway.gNodeB2.sctp cmtSmartT3Reset true
par Highway.gNodeB2.sctp cmtSmartFastRTX true
par Highway.gNodeB2.sctp cmtSmartReneging false
par Highway.gNodeB2.sctp cmtSlowPathRTTUpdate false
par Highway.gNodeB2.sctp cmtChunkReschedulingVariant "\"none\""
par Highway.gNodeB2.sctp cmtChunkReschedulingThreshold 0.5
par Highway.gNodeB2.sctp cmtMovedChunksReduceCwnd true
par Highway.gNodeB2.sctp movedChunkFastRTXFactor 2
par Highway.gNodeB2.sctp cmtSackPath "\"standard\""
par Highway.gNodeB2.sctp strictCwndBooking false
par Highway.gNodeB2.sctp cmtCCVariant "\"off\""
par Highway.gNodeB2.sctp cmtCCPathGroups "\"\""
par Highway.gNodeB2.sctp rpPathBlocking false
par Highway.gNodeB2.sctp rpScaleBlockingTimeout false
par Highway.gNodeB2.sctp rpMinCwnd 1
scalar Highway.gNodeB2.sctp "Bytes received on stream 0 of assoc 24" 0
scalar Highway.gNodeB2.sctp "Bytes received on stream 1 of assoc 24" 0
scalar Highway.gNodeB2.sctp "Bytes received on stream 2 of assoc 24" 0
scalar Highway.gNodeB2.sctp "Bytes received on stream 3 of assoc 24" 0
scalar Highway.gNodeB2.sctp "Bytes received on stream 4 of assoc 24" 0
scalar Highway.gNodeB2.sctp "Bytes received on stream 5 of assoc 24" 0
scalar Highway.gNodeB2.sctp "Bytes received on stream 6 of assoc 24" 0
scalar Highway.gNodeB2.sctp "Bytes received on stream 7 of assoc 24" 0
scalar Highway.gNodeB2.sctp "Bytes received on stream 8 of assoc 24" 0
scalar Highway.gNodeB2.sctp "Bytes received on stream 9 of assoc 24" 0
scalar Highway.gNodeB2.sctp "Bytes received on stream 10 of assoc 24" 0
scalar Highway.gNodeB2.sctp "Bytes received on stream 11 of assoc 24" 0
scalar Highway.gNodeB2.sctp "Bytes received on stream 12 of assoc 24" 0
scalar Highway.gNodeB2.sctp "Bytes received on stream 13 of assoc 24" 0
scalar Highway.gNodeB2.sctp "Bytes received on stream 14 of assoc 24" 0
scalar Highway.gNodeB2.sctp "Bytes received on stream 15 of assoc 24" 0
scalar Highway.gNodeB2.sctp "Bytes received on stream 16 of assoc 24" 0
scalar Highway.gNodeB2.sctp "Blocking TSNs Moved" 0
scalar Highway.gNodeB2.sctp "Number of Fast Retransmissions 8:10.0.0.1" 0
scalar Highway.gNodeB2.sctp "Number of Timer-Based Retransmissions 8:10.0.0.1" 0
scalar Highway.gNodeB2.sctp "Number of Heartbeats Sent 8:10.0.0.1" 0
scalar Highway.gNodeB2.sctp "Number of Heartbeats Received 8:10.0.0.1" 0
scalar Highway.gNodeB2.sctp "Number of Heartbeat ACKs Sent 8:10.0.0.1" 0
scalar Highway.gNodeB2.sctp "Number of Heartbeat ACKs Received 8:10.0.0.1" 0
scalar Highway.gNodeB2.sctp "Number of Duplicates 8:10.0.0.1" 0
scalar Highway.gNodeB2.sctp "Number of Bytes received from 8:10.0.0.1" 0
scalar Highway.gNodeB2.sctp "Number of Fast Retransmissions 8:192.168.2.2" 0
scalar Highway.gNodeB2.sctp "Number of Timer-Based Retransmissions 8:192.168.2.2" 0
scalar Highway.gNodeB2.sctp "Number of Heartbeats Sent 8:192.168.2.2" 0
scalar Highway.gNodeB2.sctp "Number of Heartbeats Received 8:192.168.2.2" 0
scalar Highway.gNodeB2.sctp "Number of Heartbeat ACKs Sent 8:192.168.2.2" 0
scalar Highway.gNodeB2.sctp "Number of Heartbeat ACKs Received 8:192.168.2.2" 0
scalar Highway.gNodeB2.sctp "Number of Duplicates 8:192.168.2.2" 0
scalar Highway.gNodeB2.sctp "Number of Bytes received from 8:192.168.2.2" 0
scalar Highway.gNodeB2.sctp "Number of Fast Retransmissions 8:192.168.4.1" 0
scalar Highway.gNodeB2.sctp "Number of Timer-Based Retransmissions 8:192.168.4.1" 0
scalar Highway.gNodeB2.sctp "Number of Heartbeats Sent 8:192.168.4.1" 0
scalar Highway.gNodeB2.sctp "Number of Heartbeats Received 8:192.168.4.1" 0
scalar Highway.gNodeB2.sctp "Number of Heartbeat ACKs Sent 8:192.168.4.1" 0
scalar Highway.gNodeB2.sctp "Number of Heartbeat ACKs Received 8:192.168.4.1" 0
scalar Highway.gNodeB2.sctp "Number of Duplicates 8:192.168.4.1" 0
scalar Highway.gNodeB2.sctp "Number of Bytes received from 8:192.168.4.1" 120
scalar Highway.gNodeB2.sctp "Number of Fast Retransmissions 8:192.168.5.1" 0
scalar Highway.gNodeB2.sctp "Number of Timer-Based Retransmissions 8:192.168.5.1" 0
scalar Highway.gNodeB2.sctp "Number of Heartbeats Sent 8:192.168.5.1" 0
scalar Highway.gNodeB2.sctp "Number of Heartbeats Received 8:192.168.5.1" 0
scalar Highway.gNodeB2.sctp "Number of Heartbeat ACKs Sent 8:192.168.5.1" 0
scalar Highway.gNodeB2.sctp "Number of Heartbeat ACKs Received 8:192.168.5.1" 0
scalar Highway.gNodeB2.sctp "Number of Duplicates 8:192.168.5.1" 0
scalar Highway.gNodeB2.sctp "Number of Bytes received from 8:192.168.5.1" 0
scalar Highway.gNodeB2.sctp "Bytes received on stream 0 of assoc 8" 15
scalar Highway.gNodeB2.sctp "Blocking TSNs Moved" 0
scalar Highway.gNodeB2.sctp "Number of Fast Retransmissions 25:10.0.0.1" 0
scalar Highway.gNodeB2.sctp "Number of Timer-Based Retransmissions 25:10.0.0.1" 0
scalar Highway.gNodeB2.sctp "Number of Heartbeats Sent 25:10.0.0.1" 0
scalar Highway.gNodeB2.sctp "Number of Heartbeats Received 25:10.0.0.1" 0
scalar Highway.gNodeB2.sctp "Number of Heartbeat ACKs Sent 25:10.0.0.1" 0
scalar Highway.gNodeB2.sctp "Number of Heartbeat ACKs Received 25:10.0.0.1" 0
scalar Highway.gNodeB2.sctp "Number of Duplicates 25:10.0.0.1" 0
scalar Highway.gNodeB2.sctp "Number of Bytes received from 25:10.0.0.1" 0
scalar Highway.gNodeB2.sctp "Number of Fast Retransmissions 25:192.168.2.2" 0
scalar Highway.gNodeB2.sctp "Number of Timer-Based Retransmissions 25:192.168.2.2" 0
scalar Highway.gNodeB2.sctp "Number of Heartbeats Sent 25:192.168.2.2" 0
scalar Highway.gNodeB2.sctp "Number of Heartbeats Received 25:192.168.2.2" 0
scalar Highway.gNodeB2.sctp "Number of Heartbeat ACKs Sent 25:192.168.2.2" 0
scalar Highway.gNodeB2.sctp "Number of Heartbeat ACKs Received 25:192.168.2.2" 0
scalar Highway.gNodeB2.sctp "Number of Duplicates 25:192.168.2.2" 0
scalar Highway.gNodeB2.sctp "Number of Bytes received from 25:192.168.2.2" 0
scalar Highway.gNodeB2.sctp "Number of Fast Retransmissions 25:192.168.4.1" 0
scalar Highway.gNodeB2.sctp "Number of Timer-Based Retransmissions 25:192.168.4.1" 0
scalar Highway.gNodeB2.sctp "Number of Heartbeats Sent 25:192.168.4.1" 0
scalar Highway.gNodeB2.sctp "Number of Heartbeats Received 25:192.168.4.1" 0
scalar Highway.gNodeB2.sctp "Number of Heartbeat ACKs Sent 25:192.168.4.1" 0
scalar Highway.gNodeB2.sctp "Number of Heartbeat ACKs Received 25:192.168.4.1" 0
scalar Highway.gNodeB2.sctp "Number of Duplicates 25:192.168.4.1" 0
scalar Highway.gNodeB2.sctp "Number of Bytes received from 25:192.168.4.1" 0
scalar Highway.gNodeB2.sctp "Number of Fast Retransmissions 25:192.168.5.1" 0
scalar Highway.gNodeB2.sctp "Number of Timer-Based Retransmissions 25:192.168.5.1" 0
scalar Highway.gNodeB2.sctp "Number of Heartbeats Sent 25:192.168.5.1" 0
scalar Highway.gNodeB2.sctp "Number of Heartbeats Received 25:192.168.5.1" 0
scalar Highway.gNodeB2.sctp "Number of Heartbeat ACKs Sent 25:192.168.5.1" 0
scalar Highway.gNodeB2.sctp "Number of Heartbeat ACKs Received 25:192.168.5.1" 0
scalar Highway.gNodeB2.sctp "Number of Duplicates 25:192.168.5.1" 0
scalar Highway.gNodeB2.sctp "Number of Bytes received from 25:192.168.5.1" 0
scalar Highway.gNodeB2.sctp "Bytes received on stream 0 of assoc 25" 0
scalar Highway.gNodeB2.sctp "Blocking TSNs Moved" 0
scalar Highway.gNodeB2.sctp "Association Lifetime" 99.9999994448
scalar Highway.gNodeB2.sctp "Acked Bytes" 0
scalar Highway.gNodeB2.sctp "Throughput [bit/s]" 0
scalar Highway.gNodeB2.sctp "Transmitted Bytes" 0
scalar Highway.gNodeB2.sctp "Fast RTX" 0
scalar Highway.gNodeB2.sctp "Timer-Based RTX" 0
scalar Highway.gNodeB2.sctp "Duplicate Acks" 0
scalar Highway.gNodeB2.sctp "Packets Received" 20
scalar Highway.gNodeB2.sctp "Packets Dropped" 0
scalar Highway.gNodeB2.sctp "Sum of R Gap Ranges" 0
scalar Highway.gNodeB2.sctp "Sum of NR Gap Ranges" 0
scalar Highway.gNodeB2.sctp "Overfull SACKs" 0
scalar Highway.gNodeB2.sctp "Drops Because New TSN Greater Than Highest TSN" 0
scalar Highway.gNodeB2.sctp "Drops Because No Room In Buffer" 0
scalar Highway.gNodeB2.sctp "Chunks Reneged" 0
scalar Highway.gNodeB2.sctp sackPeriod 0.2
scalar Highway.gNodeB2.sctp "Number of AUTH chunks sent" 0
scalar Highway.gNodeB2.sctp "Number of AUTH chunks accepted" 0
scalar Highway.gNodeB2.sctp "Number of AUTH chunks rejected" 0
scalar Highway.gNodeB2.sctp "Number of StreamReset requests sent" 0
scalar Highway.gNodeB2.sctp "Number of StreamReset requests performed" 0
scalar Highway.gNodeB2.sctp "Number of PacketDrop Reports" 0
scalar Highway.gNodeB2.sctp "Average End to End Delay" 8.544e-08
scalar Highway.gNodeB2.sctp RTXMethod 0
scalar Highway.gNodeB2.sctp "Association Lifetime" 99.9999995292
scalar Highway.gNodeB2.sctp "Acked Bytes" 120
scalar Highway.gNodeB2.sctp "Throughput [bit/s]" 9.6000000451968
scalar Highway.gNodeB2.sctp "Transmitted Bytes" 120
scalar Highway.gNodeB2.sctp "Fast RTX" 0
scalar Highway.gNodeB2.sctp "Timer-Based RTX" 0
scalar Highway.gNodeB2.sctp "Duplicate Acks" 0
scalar Highway.gNodeB2.sctp "Packets Received" 20
scalar Highway.gNodeB2.sctp "Packets Dropped" 0
scalar Highway.gNodeB2.sctp "Sum of R Gap Ranges" 0
scalar Highway.gNodeB2.sctp "Sum of NR Gap Ranges" 0
scalar Highway.gNodeB2.sctp "Overfull SACKs" 0
scalar Highway.gNodeB2.sctp "Drops Because New TSN Greater Than Highest TSN" 0
scalar Highway.gNodeB2.sctp "Drops Because No Room In Buffer" 0
scalar Highway.gNodeB2.sctp "Chunks Reneged" 0
scalar Highway.gNodeB2.sctp sackPeriod 0.2
scalar Highway.gNodeB2.sctp "Number of AUTH chunks sent" 0
scalar Highway.gNodeB2.sctp "Number of AUTH chunks accepted" 0
scalar Highway.gNodeB2.sctp "Number of AUTH chunks rejected" 0
scalar Highway.gNodeB2.sctp "Number of StreamReset requests sent" 0
scalar Highway.gNodeB2.sctp "Number of StreamReset requests performed" 0
scalar Highway.gNodeB2.sctp "Number of PacketDrop Reports" 0
scalar Highway.gNodeB2.sctp RTXMethod 0
par Highway.gNodeB2.at typename "\"inet.common.MessageDispatcher\""
par Highway.gNodeB2.at displayStringTextFormat "\"processed %p pk (%l)\""
par Highway.gNodeB2.at forwardServiceRegistration true
par Highway.gNodeB2.at forwardProtocolRegistration true
par Highway.gNodeB2.tn typename "\"inet.common.MessageDispatcher\""
par Highway.gNodeB2.tn displayStringTextFormat "\"processed %p pk (%l)\""
par Highway.gNodeB2.tn forwardServiceRegistration true
par Highway.gNodeB2.tn forwardProtocolRegistration true
par Highway.gNodeB2.nl typename "\"inet.common.MessageDispatcher\""
par Highway.gNodeB2.nl displayStringTextFormat "\"processed %p pk (%l)\""
par Highway.gNodeB2.nl forwardServiceRegistration true
par Highway.gNodeB2.nl forwardProtocolRegistration true
par Highway.gNodeB2.trafficFlowFilter typename "\"simu5g.corenetwork.trafficFlowFilter.TrafficFlowFilter\""
par Highway.gNodeB2.trafficFlowFilter ownerType "\"GNODEB\""
par Highway.gNodeB2.trafficFlowFilter fastForwarding true
par Highway.gNodeB2.gtpUser typename "\"simu5g.corenetwork.gtp.GtpUser\""
par Highway.gNodeB2.gtpUser interfaceTableModule "\"Highway.gNodeB2.interfaceTable\""
par Highway.gNodeB2.gtpUser ipOutInterface "\"cellular\""
par Highway.gNodeB2.gtpUser localPort 31
par Highway.gNodeB2.gtpUser tunnelPeerPort 31
par Highway.gNodeB2.gtpUser filter true
par Highway.gNodeB2.gtpUserX2 typename "\"simu5g.corenetwork.gtp.GtpUserX2\""
par Highway.gNodeB2.gtpUserX2 localPort 32
par Highway.gNodeB2.gtpUserX2 tunnelPeerPort 32
par Highway.gNodeB2 typename "\"simu5g.nodes.NR.gNodeB\""
par Highway.gNodeB2 nodeType "\"GNODEB\""
par Highway.gNodeB2 gateway "\"upf\""
par Highway.gNodeB2 masterId 0
attr mutable ""
par Highway.gNodeB2 macNodeId 2
attr mutable ""
par Highway.gNodeB2 macCellId 2
attr mutable ""
par Highway.gNodeB2 txPower 100mw
attr unit mw
par Highway.gNodeB2 nicType "\"NRNicEnb\""
par Highway.gNodeB2 hasIpv4 true
par Highway.gNodeB2 hasIpv6 false
par Highway.gNodeB2 numApps 0
par Highway.gNodeB2 numX2Apps 1
par Highway.gNodeB2 hasUdp true
par Highway.gNodeB2 hasTcp true
par Highway.gNodeB2 hasSctp true
par Highway.gNodeB2 mecHost "\"\""
par Highway.gNodeB2 StatsCollectorType "\"GNodeBStatsCollector\""
par Highway.gNodeB2 hasRNISupport false
par Highway.gNodeB2 extMeAppsAddress "\"\""
par Highway.gNodeB2 mcc "\"001\""
par Highway.gNodeB2 mnc "\"01\""
par Highway typename "\"prova.simulations.Highway\""
par Highway playgroundSizeX 20000m
attr unit m
par Highway playgroundSizeY 20000m
attr unit m
par Highway playgroundSizeZ 50m
attr unit m

